version 2
run Default-0-20200730-19:17:26-91284
attr configname Default
attr datetime 20200730-19:17:26
attr experiment Default
attr inifile omnetpp.ini
attr iterationvars ""
attr iterationvarsf ""
attr measurement ""
attr network RSUExampleCatania
attr processid 91284
attr repetition 0
attr replication #0
attr resultdir results
attr runnumber 0
attr seedset 0
param *.playgroundSizeX 3000m
param *.playgroundSizeY 3000m
param *.playgroundSizeZ 50m
param *.annotations.draw true
param *.obstacles.obstacles "xmldoc(\"config.xml\", \"//AnalogueModel[@type='SimpleObstacleShadowing']/obstacles\")"
param *.manager.updateInterval 1s
param *.manager.host "\"localhost\""
param *.manager.port 9999
param *.manager.autoShutdown true
param *.manager.launchConfig "xmldoc(\"catania.launchd.xml\")"
param *.rsu[0].mobility.x 2000
param *.rsu[0].mobility.y 2000
param *.rsu[0].mobility.z 3
param *.rsu[*].applType "\"TraCIDemoRSU11p\""
param *.rsu[*].appl.headerLength "80 bit"
param *.rsu[*].appl.sendBeacons false
param *.rsu[*].appl.dataOnSch false
param *.rsu[*].appl.beaconInterval 1s
param *.rsu[*].appl.beaconUserPriority 7
param *.rsu[*].appl.dataUserPriority 5
param *.rsu[*].nic.phy80211p.antennaOffsetZ "0 m"
param *.connectionManager.sendDirect true
param *.connectionManager.maxInterfDist 2600m
param *.connectionManager.drawMaxIntfDist false
param *.**.nic.mac1609_4.useServiceChannel false
param *.**.nic.mac1609_4.txPower 20mW
param *.**.nic.mac1609_4.bitrate 6Mbps
param *.**.nic.phy80211p.minPowerLevel -110dBm
param *.**.nic.phy80211p.useNoiseFloor true
param *.**.nic.phy80211p.noiseFloor -98dBm
param *.**.nic.phy80211p.decider "xmldoc(\"config.xml\")"
param *.**.nic.phy80211p.analogueModels "xmldoc(\"config.xml\")"
param *.**.nic.phy80211p.usePropagationDelay true
param *.**.nic.phy80211p.antenna "xmldoc(\"antenna.xml\", \"/root/Antenna[@id='monopole']\")"
param *.node[*].nic.phy80211p.antennaOffsetY "0 m"
param *.node[*].nic.phy80211p.antennaOffsetZ "1000 m"
param *.node[*].applType "\"TraCIDemo11p\""
param *.node[*].appl.headerLength "80 bit"
param *.node[*].appl.sendBeacons false
param *.node[*].appl.dataOnSch false
param *.node[*].appl.beaconInterval 1s
param *.node[*].veinsmobility.x 0
param *.node[*].veinsmobility.y 0
param *.node[*].veinsmobility.z 0
param *.node[*].veinsmobility.setHostSpeed false
param *.node[*0].veinsmobility.accidentCount 1
param *.node[*0].veinsmobility.accidentStart 73s
param *.node[*0].veinsmobility.accidentDuration 50s

vector 0 RSUExampleCatania.node[0].veinsmobility posx ETV
vector 1 RSUExampleCatania.node[0].veinsmobility posy ETV
vector 2 RSUExampleCatania.node[1].veinsmobility posx ETV
vector 3 RSUExampleCatania.node[1].veinsmobility posy ETV
vector 4 RSUExampleCatania.node[0].veinsmobility speed ETV
vector 5 RSUExampleCatania.node[1].veinsmobility speed ETV
vector 6 RSUExampleCatania.node[2].veinsmobility posx ETV
vector 7 RSUExampleCatania.node[2].veinsmobility posy ETV
vector 8 RSUExampleCatania.node[3].veinsmobility posx ETV
vector 9 RSUExampleCatania.node[3].veinsmobility posy ETV
vector 10 RSUExampleCatania.node[0].veinsmobility acceleration ETV
vector 11 RSUExampleCatania.node[0].veinsmobility co2emission ETV
vector 12 RSUExampleCatania.node[1].veinsmobility acceleration ETV
vector 13 RSUExampleCatania.node[1].veinsmobility co2emission ETV
vector 14 RSUExampleCatania.node[2].veinsmobility speed ETV
vector 15 RSUExampleCatania.node[3].veinsmobility speed ETV
vector 16 RSUExampleCatania.node[4].veinsmobility posx ETV
vector 17 RSUExampleCatania.node[4].veinsmobility posy ETV
vector 18 RSUExampleCatania.node[2].veinsmobility acceleration ETV
vector 19 RSUExampleCatania.node[2].veinsmobility co2emission ETV
vector 20 RSUExampleCatania.node[3].veinsmobility acceleration ETV
vector 21 RSUExampleCatania.node[3].veinsmobility co2emission ETV
vector 22 RSUExampleCatania.node[5].veinsmobility posx ETV
vector 23 RSUExampleCatania.node[5].veinsmobility posy ETV
vector 24 RSUExampleCatania.node[4].veinsmobility speed ETV
vector 25 RSUExampleCatania.node[4].veinsmobility acceleration ETV
vector 26 RSUExampleCatania.node[4].veinsmobility co2emission ETV
vector 27 RSUExampleCatania.node[5].veinsmobility speed ETV
vector 28 RSUExampleCatania.node[6].veinsmobility posx ETV
vector 29 RSUExampleCatania.node[6].veinsmobility posy ETV
vector 30 RSUExampleCatania.node[7].veinsmobility posx ETV
vector 31 RSUExampleCatania.node[7].veinsmobility posy ETV
vector 32 RSUExampleCatania.node[5].veinsmobility acceleration ETV
vector 33 RSUExampleCatania.node[5].veinsmobility co2emission ETV
vector 34 RSUExampleCatania.node[6].veinsmobility speed ETV
vector 35 RSUExampleCatania.node[7].veinsmobility speed ETV
vector 36 RSUExampleCatania.node[8].veinsmobility posx ETV
vector 37 RSUExampleCatania.node[8].veinsmobility posy ETV
vector 38 RSUExampleCatania.node[6].veinsmobility acceleration ETV
vector 39 RSUExampleCatania.node[6].veinsmobility co2emission ETV
vector 40 RSUExampleCatania.node[7].veinsmobility acceleration ETV
vector 41 RSUExampleCatania.node[7].veinsmobility co2emission ETV
vector 42 RSUExampleCatania.node[9].veinsmobility posx ETV
vector 43 RSUExampleCatania.node[9].veinsmobility posy ETV
vector 44 RSUExampleCatania.node[8].veinsmobility speed ETV
vector 45 RSUExampleCatania.node[8].veinsmobility acceleration ETV
vector 46 RSUExampleCatania.node[8].veinsmobility co2emission ETV
vector 47 RSUExampleCatania.node[9].veinsmobility speed ETV
vector 48 RSUExampleCatania.node[10].veinsmobility posx ETV
vector 49 RSUExampleCatania.node[10].veinsmobility posy ETV
vector 50 RSUExampleCatania.node[11].veinsmobility posx ETV
vector 51 RSUExampleCatania.node[11].veinsmobility posy ETV
vector 52 RSUExampleCatania.node[9].veinsmobility acceleration ETV
vector 53 RSUExampleCatania.node[9].veinsmobility co2emission ETV
vector 54 RSUExampleCatania.node[10].veinsmobility speed ETV
vector 55 RSUExampleCatania.node[11].veinsmobility speed ETV
vector 56 RSUExampleCatania.node[12].veinsmobility posx ETV
vector 57 RSUExampleCatania.node[12].veinsmobility posy ETV
vector 58 RSUExampleCatania.node[10].veinsmobility acceleration ETV
vector 59 RSUExampleCatania.node[10].veinsmobility co2emission ETV
vector 60 RSUExampleCatania.node[11].veinsmobility acceleration ETV
vector 61 RSUExampleCatania.node[11].veinsmobility co2emission ETV
vector 62 RSUExampleCatania.node[13].veinsmobility posx ETV
vector 63 RSUExampleCatania.node[13].veinsmobility posy ETV
vector 64 RSUExampleCatania.node[12].veinsmobility speed ETV
vector 65 RSUExampleCatania.node[12].veinsmobility acceleration ETV
vector 66 RSUExampleCatania.node[12].veinsmobility co2emission ETV
vector 67 RSUExampleCatania.node[13].veinsmobility speed ETV
vector 68 RSUExampleCatania.node[14].veinsmobility posx ETV
vector 69 RSUExampleCatania.node[14].veinsmobility posy ETV
vector 70 RSUExampleCatania.node[13].veinsmobility acceleration ETV
vector 71 RSUExampleCatania.node[13].veinsmobility co2emission ETV
vector 72 RSUExampleCatania.node[15].veinsmobility posx ETV
vector 73 RSUExampleCatania.node[15].veinsmobility posy ETV
vector 74 RSUExampleCatania.node[14].veinsmobility speed ETV
vector 75 RSUExampleCatania.node[16].veinsmobility posx ETV
vector 76 RSUExampleCatania.node[16].veinsmobility posy ETV
vector 77 RSUExampleCatania.node[14].veinsmobility acceleration ETV
vector 78 RSUExampleCatania.node[14].veinsmobility co2emission ETV
vector 79 RSUExampleCatania.node[15].veinsmobility speed ETV
vector 80 RSUExampleCatania.node[15].veinsmobility acceleration ETV
vector 81 RSUExampleCatania.node[15].veinsmobility co2emission ETV
vector 82 RSUExampleCatania.node[16].veinsmobility speed ETV
vector 83 RSUExampleCatania.node[17].veinsmobility posx ETV
vector 84 RSUExampleCatania.node[17].veinsmobility posy ETV
vector 85 RSUExampleCatania.node[18].veinsmobility posx ETV
vector 86 RSUExampleCatania.node[18].veinsmobility posy ETV
vector 87 RSUExampleCatania.node[16].veinsmobility acceleration ETV
vector 88 RSUExampleCatania.node[16].veinsmobility co2emission ETV
vector 89 RSUExampleCatania.node[17].veinsmobility speed ETV
vector 90 RSUExampleCatania.node[18].veinsmobility speed ETV
vector 91 RSUExampleCatania.node[19].veinsmobility posx ETV
vector 92 RSUExampleCatania.node[19].veinsmobility posy ETV
vector 93 RSUExampleCatania.node[17].veinsmobility acceleration ETV
vector 94 RSUExampleCatania.node[17].veinsmobility co2emission ETV
vector 95 RSUExampleCatania.node[18].veinsmobility acceleration ETV
vector 96 RSUExampleCatania.node[18].veinsmobility co2emission ETV
vector 97 RSUExampleCatania.node[20].veinsmobility posx ETV
vector 98 RSUExampleCatania.node[20].veinsmobility posy ETV
vector 99 RSUExampleCatania.node[19].veinsmobility speed ETV
vector 100 RSUExampleCatania.node[19].veinsmobility acceleration ETV
vector 101 RSUExampleCatania.node[19].veinsmobility co2emission ETV
vector 102 RSUExampleCatania.node[20].veinsmobility speed ETV
vector 103 RSUExampleCatania.node[21].veinsmobility posx ETV
vector 104 RSUExampleCatania.node[21].veinsmobility posy ETV
vector 105 RSUExampleCatania.node[20].veinsmobility acceleration ETV
vector 106 RSUExampleCatania.node[20].veinsmobility co2emission ETV
vector 107 RSUExampleCatania.node[22].veinsmobility posx ETV
vector 108 RSUExampleCatania.node[22].veinsmobility posy ETV
vector 109 RSUExampleCatania.node[21].veinsmobility speed ETV
vector 110 RSUExampleCatania.node[21].veinsmobility acceleration ETV
vector 111 RSUExampleCatania.node[21].veinsmobility co2emission ETV
vector 112 RSUExampleCatania.node[22].veinsmobility speed ETV
vector 113 RSUExampleCatania.node[23].veinsmobility posx ETV
vector 114 RSUExampleCatania.node[23].veinsmobility posy ETV
vector 115 RSUExampleCatania.node[22].veinsmobility acceleration ETV
vector 116 RSUExampleCatania.node[22].veinsmobility co2emission ETV
vector 117 RSUExampleCatania.node[24].veinsmobility posx ETV
vector 118 RSUExampleCatania.node[24].veinsmobility posy ETV
vector 119 RSUExampleCatania.node[23].veinsmobility speed ETV
vector 120 RSUExampleCatania.node[23].veinsmobility acceleration ETV
vector 121 RSUExampleCatania.node[23].veinsmobility co2emission ETV
vector 122 RSUExampleCatania.node[24].veinsmobility speed ETV
vector 123 RSUExampleCatania.node[25].veinsmobility posx ETV
vector 124 RSUExampleCatania.node[25].veinsmobility posy ETV
vector 125 RSUExampleCatania.node[26].veinsmobility posx ETV
vector 126 RSUExampleCatania.node[26].veinsmobility posy ETV
vector 127 RSUExampleCatania.node[24].veinsmobility acceleration ETV
vector 128 RSUExampleCatania.node[24].veinsmobility co2emission ETV
vector 129 RSUExampleCatania.node[25].veinsmobility speed ETV
vector 130 RSUExampleCatania.node[26].veinsmobility speed ETV
vector 131 RSUExampleCatania.node[27].veinsmobility posx ETV
vector 132 RSUExampleCatania.node[27].veinsmobility posy ETV
vector 133 RSUExampleCatania.node[25].veinsmobility acceleration ETV
vector 134 RSUExampleCatania.node[25].veinsmobility co2emission ETV
vector 135 RSUExampleCatania.node[26].veinsmobility acceleration ETV
vector 136 RSUExampleCatania.node[26].veinsmobility co2emission ETV
vector 137 RSUExampleCatania.node[28].veinsmobility posx ETV
vector 138 RSUExampleCatania.node[28].veinsmobility posy ETV
vector 139 RSUExampleCatania.node[27].veinsmobility speed ETV
vector 140 RSUExampleCatania.node[27].veinsmobility acceleration ETV
vector 141 RSUExampleCatania.node[27].veinsmobility co2emission ETV
vector 142 RSUExampleCatania.node[28].veinsmobility speed ETV
vector 143 RSUExampleCatania.node[29].veinsmobility posx ETV
vector 144 RSUExampleCatania.node[29].veinsmobility posy ETV
vector 145 RSUExampleCatania.node[30].veinsmobility posx ETV
vector 146 RSUExampleCatania.node[30].veinsmobility posy ETV
vector 147 RSUExampleCatania.node[28].veinsmobility acceleration ETV
vector 148 RSUExampleCatania.node[28].veinsmobility co2emission ETV
vector 149 RSUExampleCatania.node[29].veinsmobility speed ETV
vector 150 RSUExampleCatania.node[30].veinsmobility speed ETV
vector 151 RSUExampleCatania.node[31].veinsmobility posx ETV
vector 152 RSUExampleCatania.node[31].veinsmobility posy ETV
vector 153 RSUExampleCatania.node[29].veinsmobility acceleration ETV
vector 154 RSUExampleCatania.node[29].veinsmobility co2emission ETV
vector 155 RSUExampleCatania.node[30].veinsmobility acceleration ETV
vector 156 RSUExampleCatania.node[30].veinsmobility co2emission ETV
vector 157 RSUExampleCatania.node[32].veinsmobility posx ETV
vector 158 RSUExampleCatania.node[32].veinsmobility posy ETV
vector 159 RSUExampleCatania.node[31].veinsmobility speed ETV
vector 160 RSUExampleCatania.node[31].veinsmobility acceleration ETV
vector 161 RSUExampleCatania.node[31].veinsmobility co2emission ETV
vector 162 RSUExampleCatania.node[32].veinsmobility speed ETV
vector 163 RSUExampleCatania.node[33].veinsmobility posx ETV
vector 164 RSUExampleCatania.node[33].veinsmobility posy ETV
vector 165 RSUExampleCatania.node[34].veinsmobility posx ETV
vector 166 RSUExampleCatania.node[34].veinsmobility posy ETV
vector 167 RSUExampleCatania.node[32].veinsmobility acceleration ETV
vector 168 RSUExampleCatania.node[32].veinsmobility co2emission ETV
vector 169 RSUExampleCatania.node[33].veinsmobility speed ETV
vector 170 RSUExampleCatania.node[34].veinsmobility speed ETV
vector 171 RSUExampleCatania.node[33].veinsmobility acceleration ETV
vector 172 RSUExampleCatania.node[33].veinsmobility co2emission ETV
vector 173 RSUExampleCatania.node[34].veinsmobility acceleration ETV
vector 174 RSUExampleCatania.node[34].veinsmobility co2emission ETV
vector 175 RSUExampleCatania.node[35].veinsmobility posx ETV
vector 176 RSUExampleCatania.node[35].veinsmobility posy ETV
vector 177 RSUExampleCatania.node[36].veinsmobility posx ETV
vector 178 RSUExampleCatania.node[36].veinsmobility posy ETV
vector 179 RSUExampleCatania.node[35].veinsmobility speed ETV
vector 180 RSUExampleCatania.node[36].veinsmobility speed ETV
vector 181 RSUExampleCatania.node[37].veinsmobility posx ETV
vector 182 RSUExampleCatania.node[37].veinsmobility posy ETV
vector 183 RSUExampleCatania.node[38].veinsmobility posx ETV
vector 184 RSUExampleCatania.node[38].veinsmobility posy ETV
vector 185 RSUExampleCatania.node[35].veinsmobility acceleration ETV
vector 186 RSUExampleCatania.node[35].veinsmobility co2emission ETV
vector 187 RSUExampleCatania.node[36].veinsmobility acceleration ETV
vector 188 RSUExampleCatania.node[36].veinsmobility co2emission ETV
vector 189 RSUExampleCatania.node[37].veinsmobility speed ETV
vector 190 RSUExampleCatania.node[38].veinsmobility speed ETV
vector 191 RSUExampleCatania.node[39].veinsmobility posx ETV
vector 192 RSUExampleCatania.node[39].veinsmobility posy ETV
vector 193 RSUExampleCatania.node[37].veinsmobility acceleration ETV
vector 194 RSUExampleCatania.node[37].veinsmobility co2emission ETV
vector 195 RSUExampleCatania.node[38].veinsmobility acceleration ETV
vector 196 RSUExampleCatania.node[38].veinsmobility co2emission ETV
vector 197 RSUExampleCatania.node[40].veinsmobility posx ETV
vector 198 RSUExampleCatania.node[40].veinsmobility posy ETV
vector 199 RSUExampleCatania.node[39].veinsmobility speed ETV
vector 200 RSUExampleCatania.node[39].veinsmobility acceleration ETV
vector 201 RSUExampleCatania.node[39].veinsmobility co2emission ETV
vector 202 RSUExampleCatania.node[40].veinsmobility speed ETV
vector 203 RSUExampleCatania.node[41].veinsmobility posx ETV
vector 204 RSUExampleCatania.node[41].veinsmobility posy ETV
vector 205 RSUExampleCatania.node[42].veinsmobility posx ETV
vector 206 RSUExampleCatania.node[42].veinsmobility posy ETV
vector 207 RSUExampleCatania.node[40].veinsmobility acceleration ETV
vector 208 RSUExampleCatania.node[40].veinsmobility co2emission ETV
vector 209 RSUExampleCatania.node[41].veinsmobility speed ETV
vector 210 RSUExampleCatania.node[42].veinsmobility speed ETV
vector 211 RSUExampleCatania.node[41].veinsmobility acceleration ETV
vector 212 RSUExampleCatania.node[41].veinsmobility co2emission ETV
vector 213 RSUExampleCatania.node[42].veinsmobility acceleration ETV
vector 214 RSUExampleCatania.node[42].veinsmobility co2emission ETV
vector 215 RSUExampleCatania.node[43].veinsmobility posx ETV
vector 216 RSUExampleCatania.node[43].veinsmobility posy ETV
vector 217 RSUExampleCatania.node[44].veinsmobility posx ETV
vector 218 RSUExampleCatania.node[44].veinsmobility posy ETV
vector 219 RSUExampleCatania.node[43].veinsmobility speed ETV
vector 220 RSUExampleCatania.node[44].veinsmobility speed ETV
vector 221 RSUExampleCatania.node[45].veinsmobility posx ETV
vector 222 RSUExampleCatania.node[45].veinsmobility posy ETV
vector 223 RSUExampleCatania.node[46].veinsmobility posx ETV
vector 224 RSUExampleCatania.node[46].veinsmobility posy ETV
vector 225 RSUExampleCatania.node[43].veinsmobility acceleration ETV
vector 226 RSUExampleCatania.node[43].veinsmobility co2emission ETV
vector 227 RSUExampleCatania.node[44].veinsmobility acceleration ETV
vector 228 RSUExampleCatania.node[44].veinsmobility co2emission ETV
vector 229 RSUExampleCatania.node[45].veinsmobility speed ETV
vector 230 RSUExampleCatania.node[46].veinsmobility speed ETV
vector 231 RSUExampleCatania.node[45].veinsmobility acceleration ETV
vector 232 RSUExampleCatania.node[45].veinsmobility co2emission ETV
vector 233 RSUExampleCatania.node[46].veinsmobility acceleration ETV
vector 234 RSUExampleCatania.node[46].veinsmobility co2emission ETV
vector 235 RSUExampleCatania.node[47].veinsmobility posx ETV
vector 236 RSUExampleCatania.node[47].veinsmobility posy ETV
vector 237 RSUExampleCatania.node[48].veinsmobility posx ETV
vector 238 RSUExampleCatania.node[48].veinsmobility posy ETV
vector 239 RSUExampleCatania.node[47].veinsmobility speed ETV
vector 240 RSUExampleCatania.node[48].veinsmobility speed ETV
vector 241 RSUExampleCatania.node[49].veinsmobility posx ETV
vector 242 RSUExampleCatania.node[49].veinsmobility posy ETV
vector 243 RSUExampleCatania.node[47].veinsmobility acceleration ETV
vector 244 RSUExampleCatania.node[47].veinsmobility co2emission ETV
vector 245 RSUExampleCatania.node[48].veinsmobility acceleration ETV
vector 246 RSUExampleCatania.node[48].veinsmobility co2emission ETV
vector 247 RSUExampleCatania.node[50].veinsmobility posx ETV
vector 248 RSUExampleCatania.node[50].veinsmobility posy ETV
vector 249 RSUExampleCatania.node[49].veinsmobility speed ETV
vector 250 RSUExampleCatania.node[49].veinsmobility acceleration ETV
vector 251 RSUExampleCatania.node[49].veinsmobility co2emission ETV
vector 252 RSUExampleCatania.node[50].veinsmobility speed ETV
vector 253 RSUExampleCatania.node[51].veinsmobility posx ETV
vector 254 RSUExampleCatania.node[51].veinsmobility posy ETV
vector 255 RSUExampleCatania.node[52].veinsmobility posx ETV
vector 256 RSUExampleCatania.node[52].veinsmobility posy ETV
vector 257 RSUExampleCatania.node[50].veinsmobility acceleration ETV
vector 258 RSUExampleCatania.node[50].veinsmobility co2emission ETV
vector 259 RSUExampleCatania.node[51].veinsmobility speed ETV
vector 260 RSUExampleCatania.node[52].veinsmobility speed ETV
vector 261 RSUExampleCatania.node[51].veinsmobility acceleration ETV
vector 262 RSUExampleCatania.node[51].veinsmobility co2emission ETV
vector 263 RSUExampleCatania.node[52].veinsmobility acceleration ETV
vector 264 RSUExampleCatania.node[52].veinsmobility co2emission ETV
vector 265 RSUExampleCatania.node[53].veinsmobility posx ETV
vector 266 RSUExampleCatania.node[53].veinsmobility posy ETV
vector 267 RSUExampleCatania.node[54].veinsmobility posx ETV
vector 268 RSUExampleCatania.node[54].veinsmobility posy ETV
vector 269 RSUExampleCatania.node[53].veinsmobility speed ETV
vector 270 RSUExampleCatania.node[54].veinsmobility speed ETV
vector 271 RSUExampleCatania.node[55].veinsmobility posx ETV
vector 272 RSUExampleCatania.node[55].veinsmobility posy ETV
vector 273 RSUExampleCatania.node[53].veinsmobility acceleration ETV
vector 274 RSUExampleCatania.node[53].veinsmobility co2emission ETV
vector 275 RSUExampleCatania.node[54].veinsmobility acceleration ETV
vector 276 RSUExampleCatania.node[54].veinsmobility co2emission ETV
vector 277 RSUExampleCatania.node[56].veinsmobility posx ETV
vector 278 RSUExampleCatania.node[56].veinsmobility posy ETV
vector 279 RSUExampleCatania.node[55].veinsmobility speed ETV
vector 280 RSUExampleCatania.node[57].veinsmobility posx ETV
vector 281 RSUExampleCatania.node[57].veinsmobility posy ETV
vector 282 RSUExampleCatania.node[55].veinsmobility acceleration ETV
vector 283 RSUExampleCatania.node[55].veinsmobility co2emission ETV
vector 284 RSUExampleCatania.node[56].veinsmobility speed ETV
vector 285 RSUExampleCatania.node[58].veinsmobility posx ETV
vector 286 RSUExampleCatania.node[58].veinsmobility posy ETV
vector 287 RSUExampleCatania.node[56].veinsmobility acceleration ETV
vector 288 RSUExampleCatania.node[56].veinsmobility co2emission ETV
vector 289 RSUExampleCatania.node[57].veinsmobility speed ETV
vector 290 RSUExampleCatania.node[57].veinsmobility acceleration ETV
vector 291 RSUExampleCatania.node[57].veinsmobility co2emission ETV
vector 292 RSUExampleCatania.node[58].veinsmobility speed ETV
vector 293 RSUExampleCatania.node[59].veinsmobility posx ETV
vector 294 RSUExampleCatania.node[59].veinsmobility posy ETV
vector 295 RSUExampleCatania.node[58].veinsmobility acceleration ETV
vector 296 RSUExampleCatania.node[58].veinsmobility co2emission ETV
vector 297 RSUExampleCatania.node[60].veinsmobility posx ETV
vector 298 RSUExampleCatania.node[60].veinsmobility posy ETV
vector 299 RSUExampleCatania.node[59].veinsmobility speed ETV
vector 300 RSUExampleCatania.node[59].veinsmobility acceleration ETV
vector 301 RSUExampleCatania.node[59].veinsmobility co2emission ETV
vector 302 RSUExampleCatania.node[60].veinsmobility speed ETV
vector 303 RSUExampleCatania.node[61].veinsmobility posx ETV
vector 304 RSUExampleCatania.node[61].veinsmobility posy ETV
vector 305 RSUExampleCatania.node[62].veinsmobility posx ETV
vector 306 RSUExampleCatania.node[62].veinsmobility posy ETV
vector 307 RSUExampleCatania.node[60].veinsmobility acceleration ETV
vector 308 RSUExampleCatania.node[60].veinsmobility co2emission ETV
vector 309 RSUExampleCatania.node[61].veinsmobility speed ETV
vector 310 RSUExampleCatania.node[62].veinsmobility speed ETV
vector 311 RSUExampleCatania.node[61].veinsmobility acceleration ETV
vector 312 RSUExampleCatania.node[61].veinsmobility co2emission ETV
vector 313 RSUExampleCatania.node[62].veinsmobility acceleration ETV
vector 314 RSUExampleCatania.node[62].veinsmobility co2emission ETV
vector 315 RSUExampleCatania.node[63].veinsmobility posx ETV
vector 316 RSUExampleCatania.node[63].veinsmobility posy ETV
vector 317 RSUExampleCatania.node[64].veinsmobility posx ETV
vector 318 RSUExampleCatania.node[64].veinsmobility posy ETV
vector 319 RSUExampleCatania.node[63].veinsmobility speed ETV
vector 320 RSUExampleCatania.node[64].veinsmobility speed ETV
vector 321 RSUExampleCatania.node[65].veinsmobility posx ETV
vector 322 RSUExampleCatania.node[65].veinsmobility posy ETV
vector 323 RSUExampleCatania.node[66].veinsmobility posx ETV
vector 324 RSUExampleCatania.node[66].veinsmobility posy ETV
vector 325 RSUExampleCatania.node[63].veinsmobility acceleration ETV
vector 326 RSUExampleCatania.node[63].veinsmobility co2emission ETV
vector 327 RSUExampleCatania.node[64].veinsmobility acceleration ETV
vector 328 RSUExampleCatania.node[64].veinsmobility co2emission ETV
vector 329 RSUExampleCatania.node[65].veinsmobility speed ETV
vector 330 RSUExampleCatania.node[66].veinsmobility speed ETV
vector 331 RSUExampleCatania.node[65].veinsmobility acceleration ETV
vector 332 RSUExampleCatania.node[65].veinsmobility co2emission ETV
vector 333 RSUExampleCatania.node[66].veinsmobility acceleration ETV
vector 334 RSUExampleCatania.node[66].veinsmobility co2emission ETV
vector 335 RSUExampleCatania.node[67].veinsmobility posx ETV
vector 336 RSUExampleCatania.node[67].veinsmobility posy ETV
vector 337 RSUExampleCatania.node[67].veinsmobility speed ETV
vector 338 RSUExampleCatania.node[67].veinsmobility acceleration ETV
vector 339 RSUExampleCatania.node[67].veinsmobility co2emission ETV
vector 340 RSUExampleCatania.node[68].veinsmobility posx ETV
vector 341 RSUExampleCatania.node[68].veinsmobility posy ETV
vector 342 RSUExampleCatania.node[68].veinsmobility speed ETV
vector 343 RSUExampleCatania.node[68].veinsmobility acceleration ETV
vector 344 RSUExampleCatania.node[68].veinsmobility co2emission ETV
vector 345 RSUExampleCatania.node[69].veinsmobility posx ETV
vector 346 RSUExampleCatania.node[69].veinsmobility posy ETV
vector 347 RSUExampleCatania.node[69].veinsmobility speed ETV
vector 348 RSUExampleCatania.node[69].veinsmobility acceleration ETV
vector 349 RSUExampleCatania.node[69].veinsmobility co2emission ETV
13	4	3	3.6211086383691
13	5	4	3.5288866095716
13	6	5	6.0192938043615
13	7	6	7.3221686285292
13	8	7	5.6851206126511
13	9	8	6.7123948090755
13	10	9	8.0121026982828
13	11	10	2.8786236848779
13	12	11	0.973
13	13	12	2.4639111633826
13	14	13	2.1363807014502
13	15	14	6.2441872196306
13	16	15	1.3181220627517
13	17	16	0.973
13	18	17	0.973
13	19	18	0.973
13	20	19	0.973
13	21	20	5.3354728506996
13	22	21	7.2754308369501
13	23	22	5.3241661186203
13	24	23	10.128515192619
13	25	24	9.4948510382706
13	26	25	2.6268824844312
13	27	26	0.973
13	28	27	5.4074798596568
13	29	28	0.973
13	30	29	4.7133185848509
13	31	30	0.973
13	32	31	5.458799211366
13	33	32	2.3997966021049
13	34	33	0.973
13	35	34	1.5235855239862
13	36	35	3.1967596112433
13	37	36	1.681029437184
13	38	37	1.0408488466082
13	39	38	5.1891398118458
13	40	39	0.973
13	41	40	2.4422640038556
13	42	41	0.973
13	43	42	3.3594216565063
13	44	43	2.499103201455
13	45	44	1.4402746233224
13	46	45	0.973
13	47	46	0.973
13	48	47	0.973
13	49	48	6.4762894883978
13	50	49	6.0701439284701
13	51	50	7.4856325740282
13	52	51	11.002738333924
13	53	52	2.5008181592089
13	54	53	0.973
13	55	54	0.973
13	56	55	0.973
13	57	56	6.9669499098805
13	58	57	5.619956946346
13	59	58	5.5859759247539
13	60	59	9.3921090057306
13	61	60	6.8519327485804
13	62	61	4.0773897587624
13	63	62	1.9932566369429
13	64	63	0.973
13	65	64	2.9691774549828
13	66	65	3.6672263871303
13	67	66	1.8028956381726
13	68	67	2.9834132787789
13	69	68	0.973
13	70	69	3.3330168151278
13	71	70	0.973
13	72	71	3.8621601955268
13	73	72	1.0627722183775
13	74	73	2.105263518146
13	76	74	2.5481418798799
13	77	75	3.1712831617698
13	78	76	0.973
13	79	77	3.9111376285952
13	80	78	1.9165857361462
13	81	79	2.7911225355888
13	82	80	1.8320546820412
13	83	81	0.973
13	84	82	2.1056472873186
13	85	83	5.5220890768048
13	86	84	2.1193989436585
13	87	85	1.8820656006421
13	404	86	0.973
13	405	87	3.0718197169222
13	13976	88	1.4990013803787
13	13977	89	3.5015891648645
13	19148	90	2.0141835735374
13	19149	91	0.973
13	21203	92	0.973
13	21204	93	2.233756214861
13	21422	94	5.0948095933046
13	21423	95	5.9223863161117
13	21635	96	8.2724907154639
13	21636	97	5.6117461045943
13	21638	98	3.3707903962971
13	21639	99	2.2364936350284
13	21640	100	4.9948475666068
13	21641	101	1.2429086312242
13	21642	102	1.9695734348702
13	21643	103	0.973
13	21644	104	4.2269277941346
13	21645	105	3.6913553836969
13	21646	106	0.973
13	21647	107	6.4953960985206
13	21648	108	0.973
13	21649	109	4.8041231958129
13	21650	110	1.6071649172659
13	21652	111	2.8149175785614
13	21653	112	0.973
13	21654	113	1.7316379763104
13	21655	114	2.9008349471092
13	21656	115	1.1058902737949
13	21657	116	2.8222172691083
13	21658	117	0.973
13	21659	118	3.5380465013971
13	21660	119	1.412308266867
13	21661	120	4.6913832707743
12	4	3	2.045571109117
12	5	4	1.4409547501011
12	6	5	2.2296804808313
12	7	6	2.2113307103515
12	8	7	1.3476690129843
12	9	8	1.4758764983155
12	10	9	1.6288404532243
12	11	10	0.1961127044633
12	12	11	-0.31401656202506
12	13	12	0.090674749412575
12	14	13	-0.00034300375264174
12	15	14	1.0364330671029
12	16	15	-0.24004845684394
12	17	16	-0.52994646581356
12	18	17	-0.864171496931
12	19	18	-4.5
12	20	19	-4.4965737238759
12	21	20	2.1277886533644
12	22	21	2.3656493975548
12	23	22	1.3205505888676
12	24	23	2.475277706515
12	25	24	1.9419912328138
12	26	25	0.1072352380259
12	27	26	-0.55854384021368
12	28	27	0.82140220445581
12	29	28	-0.97571109118871
12	30	29	0.66321087281685
12	31	30	-0.50795226907358
12	32	31	0.83366464392748
12	33	32	0.036643777950667
12	34	33	-0.46031292839907
12	35	34	-0.1786376400385
12	36	35	0.26118318298832
12	37	36	-0.13873934103176
12	38	37	-0.30721754173283
12	39	38	0.76523482063785
12	40	39	-0.57099105361849
12	41	40	0.067047476908192
12	42	41	-0.50556534042116
12	43	42	0.32316650568973
12	44	43	0.085831016348674
12	45	44	-0.19733900704887
12	46	45	-1.455842858391
12	47	46	-3.8536958388519
12	48	47	-3.3744680715259
12	49	48	2.312641028408
12	50	49	1.7215491539333
12	51	50	1.8813314346597
12	52	51	2.4809766275575
12	53	52	0.10044131639983
12	54	53	-0.57464664137728
12	55	54	-3.9374147676087
12	56	55	-4.3736546673113
12	57	56	2.5836772234179
12	58	57	1.5889868666884
12	59	58	1.3519775079098
12	60	59	2.2172360560158
12	61	60	1.291366220973
12	62	61	0.49663096896838
12	63	62	-0.056638567941263
12	64	63	-0.5539619022049
12	65	64	0.21899665528908
12	66	65	0.38766343914904
12	67	66	-0.1062216852326
12	68	67	0.20141485559289
12	69	68	-0.3740668901708
12	70	69	0.29773242918309
12	71	70	-0.86373946338426
12	72	71	0.46251390720717
12	73	72	-0.29844427828211
12	74	73	-0.0079400666756566
12	76	74	0.11119513537269
12	77	75	0.27028325439897
12	78	76	-0.38040966631379
12	79	77	0.46600257714745
12	80	78	-0.070908038364722
12	81	79	0.1598093097331
12	82	80	-0.095424757362343
12	83	81	-0.60637195322197
12	84	82	-0.0033327807439498
12	85	83	0.8780589689035
12	86	84	-0.024921574769541
12	87	85	-0.0858932309784
12	404	86	-0.51929155290127
12	405	87	0.24502377028111
12	13976	88	-0.17989625483751
12	13977	89	0.35271583783906
12	19148	90	-0.046474669221787
12	19149	91	-2.2332454615103
12	21203	92	-4.3219768224284
12	21204	93	0.28109198436141
12	21422	94	1.3428612101357
12	21423	95	1.4291921088938
12	21635	96	1.8885980707826
12	21636	97	0.98425113775931
12	21638	98	0.33522886713035
12	21639	99	0.022213321202434
12	21640	100	0.72314404691569
12	21641	101	-0.25750897000544
12	21642	102	-0.062055335985496
12	21643	103	-0.44619931296911
12	21644	104	0.53646867389325
12	21645	105	0.37330603508744
12	21646	106	-1.1986621589633
12	21647	107	1.111104469467
12	21648	108	-0.63712000951637
12	21649	109	0.66680988590233
12	21650	110	-0.1640321807703
12	21652	111	0.14839415072929
12	21653	112	-0.35743090321775
12	21654	113	-0.12370274672285
12	21655	114	0.18336193412542
12	21656	115	-0.29098558817059
12	21657	116	0.16754292363767
12	21658	117	-0.44978474965319
12	21659	118	0.36423566595186
12	21660	119	-0.20575855157804
12	21661	120	0.64342872297857
5	3	2	2.5772626519203
5	4	3	4.6228337610373
5	5	4	6.0637885111384
5	6	5	8.2934689919697
5	7	6	10.504799702321
5	8	7	11.852468715305
5	9	8	13.328345213621
5	10	9	14.957185666845
5	11	10	15.153298371308
5	12	11	14.839281809283
5	13	12	14.929956558696
5	14	13	14.929613554943
5	15	14	15.966046622046
5	16	15	15.725998165202
5	17	16	15.196051699389
5	18	17	14.331880202458
5	19	18	9.8318802024578
5	20	19	5.3353064785819
5	21	20	7.4630951319463
5	22	21	9.8287445295011
5	23	22	11.149295118369
5	24	23	13.624572824884
5	25	24	15.566564057698
5	26	25	15.673799295723
5	27	26	15.11525545551
5	28	27	15.936657659966
5	29	28	14.960946568777
5	30	29	15.624157441594
5	31	30	15.11620517252
5	32	31	15.949869816448
5	33	32	15.986513594398
5	34	33	15.526200665999
5	35	34	15.347563025961
5	36	35	15.608746208949
5	37	36	15.470006867917
5	38	37	15.162789326184
5	39	38	15.928024146822
5	40	39	15.357033093204
5	41	40	15.424080570112
5	42	41	14.918515229691
5	43	42	15.241681735381
5	44	43	15.327512751729
5	45	44	15.13017374468
5	46	45	13.674330886289
5	47	46	9.8206350474375
5	48	47	6.4461669759116
5	49	48	8.7588080043196
5	50	49	10.480357158253
5	51	50	12.361688592913
5	52	51	14.84266522047
5	53	52	14.94310653687
5	54	53	14.368459895493
5	55	54	10.431045127884
5	56	55	6.0573904605726
5	57	56	8.6410676839905
5	58	57	10.230054550679
5	59	58	11.582032058589
5	60	59	13.799268114604
5	61	60	15.090634335577
5	62	61	15.587265304546
5	63	62	15.530626736605
5	64	63	14.9766648344
5	65	64	15.195661489689
5	66	65	15.583324928838
5	67	66	15.477103243605
5	68	67	15.678518099198
5	69	68	15.304451209027
5	70	69	15.60218363821
5	71	70	14.738444174826
5	72	71	15.200958082033
5	73	72	14.902513803751
5	74	73	14.894573737076
5	76	74	15.005768872448
5	77	75	15.276052126847
5	78	76	14.895642460533
5	79	77	15.361645037681
5	80	78	15.290736999316
5	81	79	15.450546309049
5	82	80	15.355121551687
5	83	81	14.748749598465
5	84	82	14.745416817721
5	85	83	15.623475786624
5	86	84	15.598554211855
5	87	85	15.512660980877
5	404	86	14.993369427975
5	405	87	15.238393198256
5	13976	88	15.058496943419
5	13977	89	15.411212781258
5	19148	90	15.364738112036
5	19149	91	13.131492650526
5	21203	92	8.8095158280975
5	21204	93	9.0906078124589
5	21422	94	10.433469022595
5	21423	95	11.862661131488
5	21635	96	13.751259202271
5	21636	97	14.73551034003
5	21638	98	15.070739207161
5	21639	99	15.092952528363
5	21640	100	15.816096575279
5	21641	101	15.558587605273
5	21642	102	15.496532269288
5	21643	103	15.050332956319
5	21644	104	15.586801630212
5	21645	105	15.960107665299
5	21646	106	14.761445506336
5	21647	107	15.872549975803
5	21648	108	15.235429966287
5	21649	109	15.902239852189
5	21650	110	15.738207671419
5	21652	111	15.886601822148
5	21653	112	15.52917091893
5	21654	113	15.405468172207
5	21655	114	15.588830106333
5	21656	115	15.297844518162
5	21657	116	15.4653874418
5	21658	117	15.015602692147
5	21659	118	15.379838358099
5	21660	119	15.174079806521
5	21661	120	15.817508529499
3	2	1	916.51891571645
3	3	2	916.51891571645
3	4	3	918.47061300137
3	5	4	921.8763280193
3	6	5	926.26255401741
3	7	6	932.26161372082
3	8	7	939.8602338697
3	9	8	948.43368697174
3	10	9	958.07471158538
3	11	10	970.27217770217
3	12	11	984.57665842483
3	13	12	998.95613316112
3	14	13	1013.7948051396
3	15	14	1028.6331362116
3	16	15	1044.5015634027
3	17	16	1060.1317543534
3	18	17	1075.2092595343
3	19	18	1089.2980969161
3	20	19	1098.945946605
3	21	20	1104.0829962401
3	22	21	1111.2995195704
3	23	22	1120.5552075005
3	24	23	1130.9588753832
3	25	24	1143.5840837234
3	26	25	1158.4164150915
3	27	26	1173.2539655169
3	28	27	1185.4526155958
3	29	28	1196.9740496074
3	30	29	1204.9139442036
3	31	30	1208.419275102
3	32	31	1211.9639479607
3	33	32	1216.2067120776
3	34	33	1220.2899288199
3	35	34	1223.9239638365
3	36	35	1227.648047886
3	37	36	1232.0726429453
3	38	37	1236.5532417087
3	39	38	1240.9448606448
3	40	39	1244.7621487201
3	41	40	1248.3503220078
3	42	41	1251.9541609493
3	43	42	1255.4398744666
3	44	43	1259.4727967581
3	45	44	1264.6023241847
3	46	45	1269.6658098558
3	47	46	1273.9229379185
3	48	47	1276.9065599965
3	49	48	1278.8649797947
3	50	49	1281.5050741398
3	51	50	1284.6421114794
3	52	51	1288.4045467781
3	53	52	1292.9386783098
3	54	53	1297.5034926152
3	55	54	1301.9167990262
3	56	55	1305.1396924758
3	57	56	1307.0112522091
3	58	57	1309.7076610753
3	59	58	1312.9196400524
3	60	59	1316.592326967
3	61	60	1320.9681041345
3	62	61	1325.7533762678
3	63	62	1330.696131134
3	64	63	1335.5757937534
3	65	64	1340.3488601514
3	66	65	1345.1917208319
3	67	66	1350.1581299363
3	68	67	1355.0906861662
3	69	68	1360.087433355
3	70	69	1365.0893717784
3	71	70	1370.6020703659
3	72	71	1375.809585049
3	73	72	1381.1918107626
3	74	73	1386.8523009713
3	76	74	1392.9137766826
3	77	75	1400.3439043112
3	78	76	1408.06878574
3	79	77	1415.5017040514
3	80	78	1423.1671574212
3	81	79	1430.8114963611
3	82	80	1438.595657313
3	83	81	1446.3369001466
3	84	82	1453.7724422067
3	85	83	1461.1000709419
3	86	84	1468.158093055
3	87	85	1474.6506126045
3	404	86	1477.4780942495
3	405	87	1482.7411370308
3	13976	88	1486.6472487654
3	13977	89	1489.5568945349
3	19148	90	1495.4373310435
3	19149	91	1501.8539071374
3	21203	92	1508.1474176214
3	21204	93	1513.5879166389
3	21422	94	1520.9532655058
3	21423	95	1526.4847895991
3	21635	96	1533.2342756251
3	21636	97	1541.885175955
3	21638	98	1551.5928850543
3	21639	99	1561.5214419049
3	21640	100	1569.5925356599
3	21641	101	1576.6668448177
3	21642	102	1586.9029741816
3	21643	103	1594.4179760625
3	21644	104	1601.7165947799
3	21645	105	1609.1970319749
3	21646	106	1616.2804751675
3	21647	107	1622.2805895154
3	21648	108	1627.8845437518
3	21649	109	1632.8982858734
3	21650	110	1637.7943492034
3	21652	111	1642.6399094626
3	21653	112	1646.9805674247
3	21654	113	1650.2258184001
3	21655	114	1652.980322751
3	21656	115	1655.7676122948
3	21657	116	1658.2880288443
3	21658	117	1660.6503153798
3	21659	118	1662.9133018088
3	21660	119	1664.3399476973
3	21661	120	1664.9782444104
2	2	1	1593.3739804024
2	3	2	1593.3739804024
2	4	3	1591.6432299799
2	5	4	1588.4367752649
2	6	5	1584.1438514093
2	7	6	1578.2724014378
2	8	7	1570.8354162664
2	9	8	1562.4443344201
2	10	9	1553.0083900402
2	11	10	1544.2581665735
2	12	11	1540.9992183105
2	13	12	1541.9586414031
2	14	13	1543.1355249624
2	15	14	1544.3123814837
2	16	15	1545.5709369056
2	17	16	1546.8062071033
2	18	17	1548.2922281726
2	19	18	1549.3198678349
2	20	19	1549.5867757553
2	21	20	1548.5578185242
2	22	21	1547.3199321166
2	23	22	1544.6271622556
2	24	23	1540.4910453827
2	25	24	1535.2200558541
2	26	25	1530.4806499576
2	27	26	1526.9000579773
2	28	27	1518.7930394742
2	29	28	1508.1717203467
2	30	29	1495.9921049269
2	31	30	1481.0237270204
2	32	31	1466.4801447421
2	33	32	1451.1506057309
2	34	33	1435.7440382938
2	35	34	1420.6948026099
2	36	35	1405.7970438982
2	37	36	1390.8858033826
2	38	37	1376.2320710706
2	39	38	1361.8693459738
2	40	39	1346.3703974843
2	41	40	1331.3793711381
2	42	41	1316.3228952688
2	43	42	1301.7599355163
2	44	43	1287.0272545307
2	45	44	1272.5434140736
2	46	45	1258.2460504926
2	47	46	1245.2171672171
2	48	47	1235.835296226
2	49	48	1229.6771296041
2	50	49	1221.3201769581
2	51	50	1211.3211035181
2	52	51	1199.5417718291
2	53	52	1185.4035816366
2	54	53	1171.1697173576
2	55	54	1157.4909820266
2	56	55	1147.5667781563
2	57	56	1141.8037144252
2	58	57	1133.5924332692
2	59	58	1123.8757549296
2	60	59	1112.8789013019
2	61	60	1099.7768367541
2	62	61	1085.4486518468
2	63	62	1070.64892809
2	64	63	1055.888027172
2	65	64	1041.6760693591
2	66	65	1027.2562968385
2	67	66	1012.4686549355
2	68	67	997.78181104897
2	69	68	982.90383652944
2	70	69	968.42516905696
2	71	70	953.81219348681
2	72	71	940.008194658
2	73	72	925.77545043606
2	74	73	911.97325391984
2	76	74	898.3562431401
2	77	75	885.31502791039
2	78	76	872.11849500711
2	79	77	859.19222992839
2	80	78	845.86157323946
2	81	79	832.59704644094
2	82	80	819.21392531956
2	83	81	805.91521620961
2	84	82	793.1416715662
2	85	83	780.3131323174
2	86	84	766.33860878114
2	87	85	752.11901398105
2	404	86	737.54081365483
2	405	87	723.47039771918
2	13976	88	708.72950113324
2	13977	89	693.94447548326
2	19148	90	679.66750721207
2	19149	91	665.68691310565
2	21203	92	654.13598389777
2	21204	93	648.59126437548
2	21422	94	644.68100616464
2	21423	95	635.6985212027
2	21635	96	625.80081697175
2	21636	97	614.92397403476
2	21638	98	603.62203704825
2	21639	99	592.06298405794
2	21640	100	579.25610687725
2	21641	101	564.91106594462
2	21642	102	552.69387602208
2	21643	103	539.10144993962
2	21644	104	525.90039729956
2	21645	105	512.1874604919
2	21646	106	497.84751078689
2	21647	107	484.32559011568
2	21648	108	469.56370198728
2	21649	109	455.13735618411
2	21650	110	440.06348068011
2	21652	111	425.14509274858
2	21653	112	409.93041106921
2	21654	113	394.80347409948
2	21655	114	379.69861056658
2	21656	115	364.41396301406
2	21657	116	349.37603337203
2	21658	117	334.08759215061
2	21659	118	319.23912278534
2	21660	119	303.94331160482
2	21661	120	288.77826211176
21	6	5	2.8122699009343
21	7	6	5.0862690851066
21	8	7	5.9487778483656
21	9	8	6.6279386244935
21	10	9	7.4218667348133
21	11	10	10.782576469163
21	12	11	3.5304986782672
21	13	12	1.9949490568056
21	14	13	1.2780606902575
21	15	14	6.2063643817888
21	16	15	0.973
21	17	16	0.973
21	18	17	3.080559401636
21	19	18	2.9687927294568
21	20	19	0.973
21	21	20	0.973
21	22	21	0.973
21	23	22	3.9588700603744
21	24	23	7.4558761884087
21	25	24	9.3619084687945
21	26	25	8.2740089653658
21	27	26	7.6268918402264
21	28	27	1.5030492633575
21	29	28	0.973
21	30	29	5.1262573880891
21	31	30	0.973
21	32	31	3.2483201915981
21	33	32	0.973
21	34	33	3.5057211968057
21	35	34	0.973
21	36	35	4.5259403863064
21	37	36	3.6482665740827
21	38	37	0.973
21	39	38	1.2955497700695
21	40	39	5.0475964186837
21	41	40	0.973
21	42	41	3.5797861249532
21	43	42	3.5727646894952
21	44	43	3.2549616337753
21	45	44	0.973
21	46	45	4.8201272221351
21	47	46	0.973
21	48	47	0.973
21	49	48	0.973
21	50	49	0.973
21	51	50	7.7813593700765
21	52	51	8.3760092740096
21	53	52	7.2742883080127
21	54	53	5.4669018117826
21	55	54	4.1225894202538
21	56	55	0.973
21	57	56	0.973
21	58	57	0.973
21	59	58	5.3115676218828
21	60	59	6.1640646446873
21	61	60	9.6999085790186
21	62	61	10.557994920142
21	63	62	3.1692897105362
21	64	63	0.973
21	65	64	6.5019465917396
21	66	65	2.8387898929067
21	67	66	0.973
21	68	67	5.283044972632
21	69	68	0.973
21	70	69	2.0803404553236
21	71	70	3.2678565355456
21	72	71	0.973
21	73	72	2.1087653477116
21	74	73	5.1423168832974
21	76	74	0.973
21	77	75	2.2227892360561
21	78	76	0.973
21	79	77	6.3188307084651
21	80	78	0.973
21	81	79	2.3003652795876
21	82	80	1.5141583696846
21	83	81	5.1364354640548
21	84	82	0.973
21	85	83	4.0287061554492
21	86	84	0.973
21	87	85	4.6673279564781
21	404	86	2.886654808878
21	405	87	2.7507073896479
21	13976	88	0.973
21	13977	89	0.973
21	19148	90	4.9808799148514
21	19149	91	1.1575374129399
21	21203	92	0.973
21	21204	93	0.973
21	21422	94	0.973
21	21423	95	5.0452279976184
21	21635	96	5.4379042012605
21	21636	97	4.2853869714803
21	21638	98	7.3016946207183
21	21639	99	3.6084125600692
21	21640	100	0.973
21	21641	101	8.0986485258704
21	21642	102	1.0100080392947
21	21643	103	0.973
21	21644	104	3.8784070292696
21	21645	105	0.973
21	21646	106	2.4146511232
21	21647	107	2.3498220681958
21	21648	108	5.380674825108
21	21649	109	2.6301665320116
21	21650	110	0.973
21	21652	111	1.2297420099525
21	21653	112	3.8120062458348
21	21654	113	0.973
21	21655	114	3.7465895963054
21	21656	115	1.2218460978508
21	21657	116	4.3697746003396
21	21658	117	0.973
21	21659	118	2.8094158142036
21	21660	119	4.62866072382
21	21661	120	0.973
21	21662	121	2.5258097036265
21	21663	122	4.3752430495737
20	6	5	1.6980901245028
20	7	6	2.4593247350771
20	8	7	2.178188218642
20	9	8	1.9765617014607
20	10	9	1.8873011167394
20	11	10	2.4539943669923
20	12	11	0.38054995950155
20	13	12	-0.041746971802786
20	14	13	-0.23654850299936
20	15	14	1.0415893885307
20	16	15	-0.3567601544084
20	17	16	-0.529308492993
20	18	17	0.25042078816332
20	19	18	0.21044062939472
20	20	19	-3.7143797033497
20	21	20	-0.92492528118433
20	22	21	-4.5
20	23	22	1.3368473113747
20	24	23	2.3995883058989
20	25	24	2.4864454656141
20	26	25	1.8044763513375
20	27	26	1.4276640661162
20	28	27	-0.18728192404378
20	29	28	-0.5486037308583
20	30	29	0.7645071813371
20	31	30	-0.64155317402911
20	32	31	0.28636649530381
20	33	32	-0.32347325989976
20	34	33	0.35418720568996
20	35	34	-0.40724540501833
20	36	35	0.61432733004913
20	37	36	0.36141197544057
20	38	37	-0.61600461220369
20	39	38	-0.23687897399068
20	40	39	0.73403916170355
20	41	40	-0.87927338609006
20	42	41	0.37703622325789
20	43	42	0.35582347412128
20	44	43	0.25951238998678
20	45	44	-0.88924715949688
20	46	45	0.6814853816526
20	47	46	-0.77569832548033
20	48	47	-3.2373547112217
20	49	48	-2.9935395833067
20	50	49	-1.0098474054602
20	51	50	2.4702338451752
20	52	51	2.1747559851734
20	53	52	1.5591775249923
20	54	53	0.93015329328702
20	55	54	0.52075857290607
20	56	55	-4.3266597232316
20	57	56	-3.0175361617468
20	58	57	-1.4823174962363
20	59	58	1.8442333914805
20	60	59	1.810456270352
20	61	60	2.5312889968278
20	62	61	2.3139125195099
20	63	62	0.2667424787256
20	64	63	-0.63366687903181
20	65	64	1.1178844869137
20	66	65	0.15110760100652
20	67	66	-1.1437848038739
20	68	67	0.81297250047792
20	69	68	-0.34811518301722
20	70	69	-0.025836421246641
20	71	70	0.28286870894954
20	72	71	-0.76702305795625
20	73	72	-0.0035389943979691
20	74	73	0.78206443309318
20	76	74	-0.37489441835787
20	77	75	0.014945089048705
20	78	76	-0.39492115771864
20	79	77	1.0648815880995
20	80	78	-0.57976761446334
20	81	79	0.032094318093733
20	82	80	-0.17741649670061
20	83	81	0.75356318284758
20	84	82	-0.64498138125055
20	85	83	0.47481456333771
20	86	84	-0.84283212304581
20	87	85	0.65672308155336
20	404	86	0.17408814658411
20	405	87	0.13296138362493
20	13976	88	-0.54893966068048
20	13977	89	-0.37921849493869
20	19148	90	0.73178831033874
20	19149	91	-0.27798792151734
20	21203	92	-1.1859091831517
20	21204	93	-3.9533123196801
20	21422	94	-0.42200811100126
20	21423	95	1.231040999001
20	21635	96	1.2075724883695
20	21636	97	0.74825380035237
20	21638	98	1.4916906641726
20	21639	99	0.41017077129383
20	21640	100	-0.42883718455872
20	21641	101	1.5151315152493
20	21642	102	-0.32077773523051
20	21643	103	-0.56138461972587
20	21644	104	0.44555740625341
20	21645	105	-0.62365691059943
20	21646	106	0.074277198198251
20	21647	107	0.054482781982914
20	21648	108	0.81912090438145
20	21649	109	0.096813568077049
20	21650	110	-0.62210165802389
20	21652	111	-0.25465547249187
20	21653	112	0.42938127499074
20	21654	113	-0.42737820248585
20	21655	114	0.41274064432364
20	21656	115	-0.25895187081769
20	21657	116	0.55925287499558
20	21658	117	-0.89640434870962
20	21659	118	0.17951861694455
20	21660	119	0.63310815747827
20	21661	120	-0.45445468970574
20	21662	121	0.091576014948076
20	21663	122	0.55363019385841
15	5	4	2.0125663528328
15	6	5	3.7106564773355
15	7	6	6.1699812124126
15	8	7	8.3481694310547
15	9	8	10.324731132515
15	10	9	12.212032249255
15	11	10	14.666026616247
15	12	11	15.046576575749
15	13	12	15.004829603946
15	14	13	14.768281100946
15	15	14	15.809870489477
15	16	15	15.453110335069
15	17	16	14.923801842076
15	18	17	15.174222630239
15	19	18	15.384663259634
15	20	19	11.670283556284
15	21	20	10.7453582751
15	22	21	6.2453582750998
15	23	22	7.5822055864745
15	24	23	9.9817938923735
15	25	24	12.468239357988
15	26	25	14.272715709325
15	27	26	15.700379775441
15	28	27	15.513097851397
15	29	28	14.964494120539
15	30	29	15.729001301876
15	31	30	15.087448127847
15	32	31	15.373814623151
15	33	32	15.050341363251
15	34	33	15.404528568941
15	35	34	14.997283163923
15	36	35	15.611610493972
15	37	36	15.973022469413
15	38	37	15.357017857209
15	39	38	15.120138883218
15	40	39	15.854178044922
15	41	40	14.974904658832
15	42	41	15.35194088209
15	43	42	15.707764356211
15	44	43	15.967276746198
15	45	44	15.078029586701
15	46	45	15.759514968353
15	47	46	14.983816642873
15	48	47	11.746461931651
15	49	48	8.7529223483446
15	50	49	7.7430749428844
15	51	50	10.21330878806
15	52	51	12.388064773233
15	53	52	13.947242298225
15	54	53	14.877395591512
15	55	54	15.398154164418
15	56	55	11.071494441187
15	57	56	8.05395827944
15	58	57	6.5716407832037
15	59	58	8.4158741746842
15	60	59	10.226330445036
15	61	60	12.757619441864
15	62	61	15.071531961374
15	63	62	15.338274440099
15	64	63	14.704607561068
15	65	64	15.822492047981
15	66	65	15.973599648988
15	67	66	14.829814845114
15	68	67	15.642787345592
15	69	68	15.294672162575
15	70	69	15.268835741328
15	71	70	15.551704450278
15	72	71	14.784681392321
15	73	72	14.781142397923
15	74	73	15.563206831017
15	76	74	15.188312412659
15	77	75	15.203257501707
15	78	76	14.808336343989
15	79	77	15.873217932088
15	80	78	15.293450317625
15	81	79	15.325544635719
15	82	80	15.148128139018
15	83	81	15.901691321866
15	84	82	15.256709940615
15	85	83	15.731524503953
15	86	84	14.888692380907
15	87	85	15.54541546246
15	404	86	15.719503609044
15	405	87	15.852464992669
15	13976	88	15.303525331989
15	13977	89	14.92430683705
15	19148	90	15.656095147389
15	19149	91	15.378107225872
15	21203	92	14.19219804272
15	21204	93	10.23888572304
15	21422	94	9.8168776120386
15	21423	95	11.04791861104
15	21635	96	12.255491099409
15	21636	97	13.003744899761
15	21638	98	14.495435563934
15	21639	99	14.905606335228
15	21640	100	14.476769150669
15	21641	101	15.991900665918
15	21642	102	15.671122930688
15	21643	103	15.109738310962
15	21644	104	15.555295717215
15	21645	105	14.931638806616
15	21646	106	15.005916004814
15	21647	107	15.060398786797
15	21648	108	15.879519691179
15	21649	109	15.976333259256
15	21650	110	15.354231601232
15	21652	111	15.09957612874
15	21653	112	15.528957403731
15	21654	113	15.101579201245
15	21655	114	15.514319845568
15	21656	115	15.255367974751
15	21657	116	15.814620849746
15	21658	117	14.918216501037
15	21659	118	15.097735117981
15	21660	119	15.730843275459
15	21661	120	15.276388585754
15	21662	121	15.367964600702
15	21663	122	15.92159479456
9	4	3	916.51891571645
9	5	4	916.51891571645
9	6	5	918.04298245587
9	7	6	920.80803526917
9	8	7	925.27107548768
9	9	8	931.30970261458
9	10	9	938.77807062145
9	11	10	947.61161309133
9	12	11	958.22024614557
9	13	12	970.52862107323
9	14	13	984.70471908078
9	15	14	999.02681569368
9	16	15	1014.7400216427
9	17	16	1030.0986487364
9	18	17	1044.9312036294
9	19	18	1060.0129862224
9	20	19	1075.277839253
9	21	20	1086.7042562021
9	22	21	1097.6346823297
9	23	22	1103.8949740751
9	24	23	1111.5015620057
9	25	24	1121.2566392323
9	26	25	1132.7912782706
9	27	26	1145.9000165439
9	28	27	1160.9021221324
9	29	28	1176.2335134077
9	30	29	1188.6015284244
9	31	30	1200.2587336059
9	32	31	1208.0981067273
9	33	32	1211.6601125357
9	34	33	1215.2653290054
9	35	34	1219.3845903777
9	36	35	1223.2311350742
9	37	36	1226.8959683812
9	38	37	1230.7539965163
9	39	38	1235.1406209728
9	40	39	1236.3997348548
9	41	40	1240.9916016296
9	42	41	1244.5771588852
9	43	42	1248.1641423769
9	44	43	1251.8342640814
9	45	44	1255.5650208981
9	46	45	1259.5972782359
9	47	46	1264.8713801446
9	48	47	1269.8858857379
9	49	48	1273.5370178637
9	50	49	1276.1962565218
9	51	50	1278.548691903
9	52	51	1281.6292325279
9	53	52	1285.337364631
9	54	53	1289.5979627206
9	55	54	1294.1427036723
9	56	55	1298.846525748
9	57	56	1302.2565155828
9	58	57	1304.7449574469
9	59	58	1306.7754057647
9	60	59	1309.3983184521
9	61	60	1312.6049968556
9	62	61	1316.6504650212
9	63	62	1321.4296797511
9	64	63	1326.2934790865
9	65	64	1330.9563413114
9	66	65	1335.9303328531
9	67	66	1341.0211225972
9	68	67	1345.7473878712
9	69	68	1350.732747661
9	70	69	1355.6071630649
9	71	70	1360.4733443956
9	72	71	1365.6045757148
9	73	72	1370.8284273319
9	74	73	1376.0510285208
9	76	74	1381.588961393
9	77	75	1387.358007799
9	78	76	1393.6132344501
9	79	77	1401.0841254522
9	80	78	1409.0866469517
9	81	79	1416.7180711894
9	82	80	1424.3655104763
9	83	81	1431.9451259684
9	84	82	1439.9619204675
9	85	83	1447.6535493546
9	86	84	1455.5845547146
9	87	85	1462.7984273039
9	404	86	1469.6813236121
9	405	87	1476.1751169875
9	13976	88	1478.9244491919
9	13977	89	1484.1174598116
9	19148	90	1487.3892102594
9	19149	91	1491.3218851156
9	21203	92	1497.267350949
9	21204	93	1503.4851872249
9	21422	94	1508.4569264909
9	21423	95	1514.961434942
9	21635	96	1522.8515259383
9	21636	97	1529.3490335405
9	21638	98	1537.2332417718
9	21639	99	1546.6863230525
9	21640	100	1556.5060908726
9	21641	101	1565.9472440563
9	21642	102	1573.0312877467
9	21643	103	1583.0521347112
9	21644	104	1590.3795618965
9	21645	105	1597.9230609543
9	21646	106	1605.1641192613
9	21647	107	1612.1364390503
9	21648	108	1618.5868575814
9	21649	109	1624.6806278348
9	21650	110	1630.2179165777
9	21652	111	1635.0439788475
9	21653	112	1639.6929139453
9	21654	113	1644.4740491567
9	21655	114	1648.1903286623
9	21656	115	1651.1479542507
9	21657	116	1653.8756206215
9	21658	117	1656.6757505573
9	21659	118	1659.0293710064
9	21660	119	1661.3354998712
9	21661	120	1663.6877127522
9	21662	121	1664.5543757303
9	21663	122	1665.2040531796
8	4	3	1593.3739804024
8	5	4	1593.3739804024
8	6	5	1592.0224495203
8	7	6	1589.4823436952
8	8	7	1585.1142395823
8	9	8	1579.2040638506
8	10	9	1571.8945601468
8	11	10	1563.2489214555
8	12	11	1552.8659512362
8	13	12	1544.1141484317
8	14	13	1540.996056319
8	15	14	1541.9642473704
8	16	15	1543.2104918977
8	17	16	1544.4286140952
8	18	17	1545.6050124967
8	19	18	1546.796869986
8	20	19	1548.2989916989
8	21	20	1552.4438602751
8	22	21	1552.7758038018
8	23	22	1551.8603760763
8	24	23	1550.509768019
8	25	24	1547.7840078751
8	26	25	1543.2006226124
8	27	26	1537.7197191868
8	28	27	1533.1836365855
8	29	28	1529.0784236839
8	30	29	1520.2839859454
8	31	30	1509.3675208729
8	32	31	1496.4283102668
8	33	32	1481.2172490679
8	34	33	1466.4757686061
8	35	34	1451.6453183555
8	36	35	1437.1654851324
8	37	36	1422.0042496685
8	38	37	1406.561030834
8	39	38	1391.7934499343
8	40	39	1376.7341129768
8	41	40	1361.7164802711
8	42	41	1347.1432663696
8	43	42	1332.157210871
8	44	43	1316.8238122988
8	45	44	1301.237086339
8	46	45	1286.675766038
8	47	46	1271.7837020626
8	48	47	1257.6246396493
8	49	48	1246.4306761911
8	50	49	1238.0688148787
8	51	50	1230.6716832434
8	52	51	1220.9259420765
8	53	52	1209.1057653413
8	54	53	1195.8204987571
8	55	54	1181.6492265955
8	56	55	1166.9819125412
8	57	56	1156.4448983077
8	58	57	1148.7822793708
8	59	58	1142.5299525813
8	60	59	1134.5314599877
8	61	60	1124.8178676826
8	62	61	1112.7048228447
8	63	62	1098.3947751703
8	64	63	1083.8314620949
8	65	64	1069.8698000839
8	66	65	1054.8323756665
8	67	66	1039.6743864318
8	68	67	1025.6017804624
8	69	68	1010.7577122877
8	70	69	996.24398456934
8	71	70	981.7547740671
8	72	71	967.05947448526
8	73	72	953.21216996634
8	74	73	939.36818006285
8	76	74	924.80706239084
8	77	75	910.74016901768
8	78	76	896.87094039086
8	79	77	884.07504443091
8	80	78	870.3483768269
8	81	79	857.07689872196
8	82	80	843.77756954149
8	83	81	830.63889721088
8	84	82	816.86681689657
8	85	83	803.65333976504
8	86	84	790.02863692371
8	87	85	776.97467456091
8	404	86	763.00250464717
8	405	87	748.65344544475
8	13976	88	733.67407411365
8	13977	89	719.2574566545
8	19148	90	704.67233341288
8	19149	91	689.56343037069
8	21203	92	675.34922768305
8	21204	93	662.57311746692
8	21422	94	653.60223901061
8	21423	95	648.19663678177
8	21635	96	641.5984749307
8	21636	97	631.04735676825
8	21638	98	620.53007858324
8	21639	99	609.33436876295
8	21640	100	597.90197045036
8	21641	101	586.73530601747
8	21642	102	572.2006736094
8	21643	103	559.65891098623
8	21644	104	546.40575230865
8	21645	105	532.76178322234
8	21646	106	519.66484041977
8	21647	107	506.34195406988
8	21648	108	492.69933575585
8	21649	109	478.00406061364
8	21650	110	463.09343514036
8	21652	111	448.53125111949
8	21653	112	434.21822774395
8	21654	113	419.49819001426
8	21655	114	404.91946974982
8	21656	115	389.74676174507
8	21657	116	374.7890695265
8	21658	117	359.28188982836
8	21659	118	344.57815390265
8	21660	119	329.65315853499
8	21661	120	314.0945778397
8	21662	121	298.84879730539
8	21663	122	283.49011951258
26	8	7	2.49970770846
26	9	8	3.5454596383812
26	10	9	4.6295892761884
26	11	10	4.367965600383
26	12	11	6.5766284180664
26	13	12	7.6591509996485
26	14	13	6.8316397687457
26	15	14	9.1975603061923
26	16	15	2.4190711814427
26	17	16	2.5844733902956
26	18	17	0.973
26	19	18	5.0779206426013
26	20	19	2.3623156546929
26	21	20	2.0540906212908
26	22	21	1.5090680767075
26	23	22	0.973
26	24	23	0.973
26	25	24	0.973
26	26	25	3.3647570760445
26	27	26	6.8177777060076
26	28	27	8.7425727121414
26	29	28	6.5769479848166
26	30	29	8.0960254415907
26	31	30	5.9312440290728
26	32	31	4.0854284391081
26	33	32	0.973
26	34	33	5.6774095681714
26	35	34	2.3295933290251
26	36	35	0.973
26	37	36	5.9587628755098
26	38	37	0.973
26	39	38	2.2013748627529
26	40	39	4.7049559499071
26	41	40	0.973
26	42	41	1.0616280847165
26	43	42	4.2614134233675
26	44	43	2.9426190149473
26	45	44	0.973
26	46	45	5.1581689140814
26	47	46	1.756372819565
26	48	47	2.797732099837
26	49	48	0.973
26	50	49	4.8012577577841
26	51	50	0.973
26	52	51	0.973
26	53	52	0.973
26	54	53	5.8728473150248
26	55	54	8.6629867319808
26	56	55	9.5178838292314
26	57	56	11.328238960623
26	58	57	0.973
26	59	58	0.973
26	60	59	0.973
26	61	60	0.973
26	62	61	4.2439031763479
26	63	62	6.8331683947801
26	64	63	5.6446376243517
26	65	64	9.0498664915042
26	66	65	9.9803921410199
26	67	66	0.973
26	68	67	3.2468029532494
26	69	68	0.973
26	70	69	3.7097423835569
26	71	70	0.973
26	72	71	5.5015253328439
26	73	72	0.973
26	74	73	1.7623256398633
26	76	74	3.9700450479973
26	77	75	0.973
26	78	76	5.4060294302523
26	79	77	1.4844137458575
26	80	78	2.218858946274
26	81	79	2.914786164096
26	82	80	2.2543028622489
26	83	81	0.973
26	84	82	2.5676661938264
26	85	83	1.3858141476414
26	86	84	6.3855240784246
26	87	85	0.973
26	404	86	1.4104754746642
26	405	87	4.9740599427062
26	13976	88	0.973
26	13977	89	1.6193060315756
26	19148	90	1.9681280496079
26	19149	91	2.5871118554037
26	21203	92	3.2958480323619
26	21204	93	0.973
26	21422	94	5.1071896111967
26	21423	95	3.4855843047295
26	21635	96	0.973
26	21636	97	0.973
26	21638	98	0.973
26	21639	99	8.5658769180494
26	21640	100	10.040709917423
26	21641	101	4.9473788922569
26	21642	102	1.1751551528422
26	21643	103	4.4592413695434
26	21644	104	0.973
26	21645	105	5.0989847559761
26	21646	106	1.1772531534999
26	21647	107	3.6537338492038
26	21648	108	2.8122511563576
26	21649	109	0.973
26	21650	110	4.8036496133141
26	21652	111	1.4511370193973
26	21653	112	0.973
26	21654	113	1.3628277424456
26	21655	114	2.327117318457
26	21656	115	2.2198003886875
26	21657	116	6.0643403878223
26	21658	117	0.973
26	21659	118	6.1891881203213
26	21660	119	2.2321831830427
26	21661	120	0.973
26	21662	121	2.3435793584857
26	21663	122	3.2139031824541
26	21664	123	3.0932813139118
26	21667	124	1.0535635146422
26	21668	125	2.0579227145726
25	8	7	2.0847704734653
25	9	8	2.0182335835416
25	10	9	2.012448851252
25	11	10	1.4621258274885
25	12	11	2.0215531989234
25	13	12	2.001868401817
25	14	13	1.4854095157003
25	15	14	1.8866237668454
25	16	15	0.059270387887954
25	17	16	0.09991202771198
25	18	17	-0.37459695551079
25	19	18	0.73611341572832
25	20	19	0.027852044068277
25	21	20	-0.050886398553848
25	22	21	-0.18950528935529
25	23	22	-3.2216179647527
25	24	23	-3.1743493640703
25	25	24	-4.5
25	26	25	1.311040297593
25	27	26	2.5112010973739
25	28	27	2.5746821876615
25	29	28	1.5186360970139
25	30	29	1.724187891325
25	31	30	1.0019161673215
25	32	31	0.47697595253121
25	33	32	-0.87733168797568
25	34	33	0.8902642711997
25	35	34	0.018890861235558
25	36	35	-1.2089775513625
25	37	36	0.98258566309232
25	38	37	-0.39437646416482
25	39	38	0.0043641877127811
25	40	39	0.63469925760291
25	41	40	-0.60605227912311
25	42	41	-0.30068108772393
25	43	42	0.5430426526349
25	44	43	0.18493673645426
25	45	44	-0.80012991789263
25	46	45	0.76884584072977
25	47	46	-0.1228396170307
25	48	47	0.14719247454777
25	49	48	-0.69659748368431
25	50	49	0.6748077405151
25	51	50	-2.3594861800293
25	52	51	-2.2788523380337
25	53	52	-4.5
25	54	53	2.0452050217893
25	55	54	2.5418741665548
25	56	55	2.3065778597258
25	57	56	2.3683958726138
25	58	57	-0.6484371797168
25	59	58	-3.1578200385754
25	60	59	-2.0960148473561
25	61	60	-4.5
25	62	61	1.6086549210595
25	63	62	2.2911964192521
25	64	63	1.4827357839793
25	65	64	2.2429834315786
25	66	65	2.1236608204665
25	67	66	-0.42501130754736
25	68	67	0.29827002882957
25	69	68	-0.36933514017146
25	70	69	0.42216296594124
25	71	70	-0.34111658623442
25	72	71	0.86564906411804
25	73	72	-0.39909690029454
25	74	73	-0.11052067419514
25	76	74	0.46375961906742
25	77	75	-0.88199873410631
25	78	76	0.84724184682127
25	79	77	-0.19078937678132
25	80	78	0.0064796891296286
25	81	79	0.1855462431442
25	82	80	0.0098350640153502
25	83	81	-0.77212982797064
25	84	82	0.11758641293272
25	85	83	-0.20636103367433
25	86	84	1.0838794336421
25	87	85	-0.91805721309502
25	404	86	-0.19887142269872
25	405	87	0.74342222181149
25	13976	88	-0.50948269157671
25	13977	89	-0.14201722533908
25	19148	90	-0.043241306394339
25	19149	91	0.12550931281876
25	21203	92	0.30687963662203
25	21204	93	-0.37281566408928
25	21422	94	0.76837376854382
25	21423	95	0.32093196725473
25	21635	96	-1.3069729411302
25	21636	97	-4.5
25	21638	98	-0.43384150150232
25	21639	99	2.319083649246
25	21640	100	2.3081422952702
25	21641	101	0.76756727372092
25	21642	102	-0.26618577302434
25	21643	103	0.60890309580136
25	21644	104	-0.44796881531365
25	21645	105	0.75620721047744
25	21646	106	-0.2738515591016
25	21647	107	0.37004677043296
25	21648	108	0.14383689837996
25	21649	109	-0.85685028505977
25	21650	110	0.67414085299242
25	21652	111	-0.20267033008859
25	21653	112	-0.53411653859075
25	21654	113	-0.21404253004584
25	21655	114	0.053574090474285
25	21656	115	0.022956726793199
25	21657	116	0.99397888961248
25	21658	117	-0.96914186996874
25	21659	118	1.0215360151604
25	21660	119	-0.0062406843528144
25	21661	120	-1.1596048825188
25	21662	121	0.059437270113268
25	21663	122	0.28789181311149
25	21664	123	0.24342736538965
25	21667	124	-0.30301388087683
25	21668	125	-0.026163669000379
24	7	6	0.43621021959526
24	8	7	2.5209806930606
24	9	8	4.5392142766022
24	10	9	6.5516631278541
24	11	10	8.0137889553426
24	12	11	10.035342154266
24	13	12	12.037210556083
24	14	13	13.522620071783
24	15	14	15.409243838629
24	16	15	15.468514226517
24	17	16	15.568426254229
24	18	17	15.193829298718
24	19	18	15.929942714446
24	20	19	15.957794758515
24	21	20	15.906908359961
24	22	21	15.717403070605
24	23	22	12.495785105853
24	24	23	9.3214357417823
24	25	24	4.8214357417823
24	26	25	6.1324760393753
24	27	26	8.6436771367492
24	28	27	11.218359324411
24	29	28	12.736995421425
24	30	29	14.46118331275
24	31	30	15.463099480071
24	32	31	15.940075432602
24	33	32	15.062743744627
24	34	33	15.953008015826
24	35	34	15.971898877062
24	36	35	14.762921325699
24	37	36	15.745506988792
24	38	37	15.351130524627
24	39	38	15.35549471234
24	40	39	15.990193969943
24	41	40	15.38414169082
24	42	41	15.083460603096
24	43	42	15.62650325573
24	44	43	15.811439992185
24	45	44	15.011310074292
24	46	45	15.780155915022
24	47	46	15.657316297991
24	48	47	15.804508772539
24	49	48	15.107911288855
24	50	49	15.78271902937
24	51	50	13.42323284934
24	52	51	11.144380511307
24	53	52	6.6443805113068
24	54	53	8.6895855330961
24	55	54	11.231459699651
24	56	55	13.538037559377
24	57	56	15.90643343199
24	58	57	15.257996252274
24	59	58	12.100176213698
24	60	59	10.004161366342
24	61	60	5.5041613663421
24	62	61	7.1128162874016
24	63	62	9.4040127066537
24	64	63	10.886748490633
24	65	64	13.129731922212
24	66	65	15.253392742678
24	67	66	14.828381435131
24	68	67	15.12665146396
24	69	68	14.757316323789
24	70	69	15.17947928973
24	71	70	14.838362703496
24	72	71	15.704011767614
24	73	72	15.304914867319
24	74	73	15.194394193124
24	76	74	15.658153812191
24	77	75	14.776155078085
24	78	76	15.623396924906
24	79	77	15.432607548125
24	80	78	15.439087237255
24	81	79	15.624633480399
24	82	80	15.634468544414
24	83	81	14.862338716444
24	84	82	14.979925129376
24	85	83	14.773564095702
24	86	84	15.857443529344
24	87	85	14.939386316249
24	404	86	14.74051489355
24	405	87	15.483937115362
24	13976	88	14.974454423785
24	13977	89	14.832437198446
24	19148	90	14.789195892052
24	19149	91	14.914705204871
24	21203	92	15.221584841493
24	21204	93	14.848769177403
24	21422	94	15.617142945947
24	21423	95	15.938074913202
24	21635	96	14.631101972072
24	21636	97	10.131101972072
24	21638	98	9.6972604705693
24	21639	99	12.016344119815
24	21640	100	14.324486415086
24	21641	101	15.092053688806
24	21642	102	14.825867915782
24	21643	103	15.434771011584
24	21644	104	14.98680219627
24	21645	105	15.743009406747
24	21646	106	15.469157847646
24	21647	107	15.839204618079
24	21648	108	15.983041516459
24	21649	109	15.126191231399
24	21650	110	15.800332084391
24	21652	111	15.597661754303
24	21653	112	15.063545215712
24	21654	113	14.849502685666
24	21655	114	14.90307677614
24	21656	115	14.926033502934
24	21657	116	15.920012392546
24	21658	117	14.950870522577
24	21659	118	15.972406537738
24	21660	119	15.966165853385
24	21661	120	14.806560970866
24	21662	121	14.865998240979
24	21663	122	15.153890054091
24	21664	123	15.397317419481
24	21667	124	15.094303538604
24	21668	125	15.068139869603
17	6	5	916.51891571645
17	7	6	916.51891571645
17	8	7	916.8492469307
17	9	8	918.75832327971
17	10	9	922.09066221906
17	11	10	926.82979108042
17	12	11	932.62654494061
17	13	12	939.88558416603
17	14	13	948.59266980876
17	15	14	958.37422264697
17	16	15	971.03653066409
17	17	16	985.64114470629
17	18	17	1000.854933098
17	19	18	1015.9558644487
17	20	19	1031.7884084784
17	21	20	1047.6486342594
17	22	21	1063.4530485993
17	23	22	1079.0477503193
17	24	23	1091.2931135878
17	25	24	1100.4115373199
17	26	25	1105.0538113518
17	27	26	1110.9865083644
17	28	27	1119.1513423206
17	29	28	1129.6186640525
17	30	29	1141.4287727218
17	31	30	1155.1079652222
17	32	31	1169.8868522127
17	33	32	1183.3742450929
17	34	33	1194.4621968745
17	35	34	1203.9537601455
17	36	35	1207.8917557106
17	37	36	1211.2951808538
17	38	37	1215.4270042505
17	39	38	1219.4603518521
17	40	39	1223.0544317356
17	41	40	1226.8231211589
17	42	41	1231.1177289262
17	43	42	1235.4863717783
17	44	43	1240.0122967996
17	45	44	1243.9825948639
17	46	45	1247.4899899118
17	47	46	1251.1770259157
17	48	47	1254.8353604232
17	49	48	1258.7952966541
17	50	49	1263.8513319398
17	51	50	1269.1331993529
17	52	51	1273.3631382849
17	53	52	1276.7489294867
17	54	53	1278.7675688407
17	55	54	1281.3879978337
17	56	55	1284.7495452355
17	57	56	1288.8742520618
17	58	57	1293.7333430881
17	59	58	1298.3943497799
17	60	59	1302.1170043022
17	61	60	1305.2080029261
17	62	61	1306.9086307535
17	63	62	1309.1254804508
17	64	63	1312.0683217012
17	65	64	1315.5199776744
17	66	65	1319.6834434962
17	67	66	1324.5203266654
17	68	67	1329.2224378481
17	69	68	1333.982378944
17	70	69	1338.6690864552
17	71	70	1343.506789865
17	72	71	1348.2357793433
17	73	72	1353.24065137
17	74	73	1358.1183311261
17	76	74	1362.960787919
17	77	75	1368.3999045148
17	78	76	1373.6207435407
17	79	77	1379.1409373903
17	80	78	1384.8610622501
17	81	79	1390.9102277983
17	82	80	1398.2509566446
17	83	81	1406.212213478
17	84	82	1413.6285132373
17	85	83	1421.1034885593
17	86	84	1428.4794292851
17	87	85	1436.4551040679
17	404	86	1443.9867551115
17	405	87	1451.4181456674
17	13976	88	1459.2243305177
17	13977	89	1466.1179199645
17	19148	90	1472.4252714623
17	19149	91	1477.7835338131
17	21203	92	1480.5828245446
17	21204	93	1485.2230538685
17	21422	94	1488.2123634382
17	21423	95	1493.0254700852
17	21635	96	1499.2564799561
17	21636	97	1506.0885651055
17	21638	98	1511.3681033782
17	21639	99	1519.8038401547
17	21640	100	1526.1745589318
17	21641	101	1534.3811647852
17	21642	102	1544.0048339109
17	21643	103	1553.7720703045
17	21644	104	1563.9404501934
17	21645	105	1571.1720616861
17	21646	106	1578.2904631134
17	21647	107	1588.5533420473
17	21648	108	1596.2345219674
17	21649	109	1603.9854552066
17	21650	110	1611.0962281565
17	21652	111	1617.9433990371
17	21653	112	1624.0217388178
17	21654	113	1629.2973708635
17	21655	114	1634.0372974284
17	21656	115	1638.6257332957
17	21657	116	1643.221237198
17	21658	117	1647.4300102994
17	21659	118	1650.4659906519
17	21660	119	1653.321863827
17	21661	120	1656.176621165
17	21662	121	1658.5623974019
17	21663	122	1660.833129229
17	21664	123	1663.1120982551
17	21667	124	1664.3968451438
17	21668	125	1665.0317860731
16	6	5	1593.3739804024
16	7	6	1593.3739804024
16	8	7	1593.0810451747
16	9	8	1591.3880906765
16	10	9	1588.2270003013
16	11	10	1583.5886803989
16	12	11	1577.9152328971
16	13	12	1570.810605212
16	14	13	1562.288733406
16	15	14	1552.7152500648
16	16	15	1543.8289073074
16	17	16	1540.9729346986
16	18	17	1542.1092388711
16	19	18	1543.3069227246
16	20	19	1544.5626321841
16	21	20	1545.8205371364
16	22	21	1547.1327973296
16	23	22	1548.6707910133
16	24	23	1549.3805921731
16	25	24	1549.2932161694
16	26	25	1548.3633630877
16	27	26	1547.3649542764
16	28	27	1545.1696253494
16	29	28	1541.0293923161
16	30	29	1536.1198922302
16	31	30	1531.3370809837
16	32	31	1528.0161685077
16	33	32	1520.6271889828
16	34	33	1510.7948576943
16	35	34	1498.4384197453
16	36	35	1483.276327369
16	37	36	1469.0962043074
16	38	37	1453.9444595787
16	39	38	1439.1794755555
16	40	39	1424.2957017373
16	41	40	1408.7924445029
16	42	41	1394.0088356281
16	43	42	1379.7212534762
16	44	43	1364.9192823047
16	45	44	1349.627294925
16	46	45	1334.973751923
16	47	46	1319.5696871122
16	48	47	1304.2855342612
16	49	48	1288.9402579323
16	50	49	1274.6639314147
16	51	50	1259.7499405994
16	52	51	1246.9774330302
16	53	52	1236.3309585683
16	54	53	1229.9834341494
16	55	54	1221.6919244042
16	56	55	1210.9760758782
16	57	56	1198.0771511871
16	58	57	1182.9256822423
16	59	58	1168.3918738077
16	60	59	1156.8744931461
16	61	60	1147.3564308873
16	62	61	1142.1197150198
16	63	62	1135.3596748982
16	64	63	1126.4265167916
16	65	64	1116.0897571366
16	66	65	1103.6234006812
16	67	66	1089.1406806828
16	68	67	1075.0614984328
16	69	68	1060.686929374
16	70	69	1046.6776492482
16	71	70	1032.273232666
16	72	71	1018.1925152909
16	73	72	1003.2903488072
16	74	73	988.76690137554
16	76	74	974.34833144343
16	77	75	959.64966043204
16	78	76	945.81034164285
16	79	77	931.17749774866
16	80	78	916.82856982492
16	81	79	902.61079116929
16	82	80	888.82103494865
16	83	81	875.34717911098
16	84	82	862.44981463358
16	85	83	849.45041003624
16	86	84	836.6313522586
16	87	85	822.89118949438
16	404	86	809.95253887985
16	405	87	797.1861261204
16	13976	88	783.7758528848
16	13977	89	770.44955046554
16	19148	90	756.99284594921
16	19149	91	743.29451608302
16	21203	92	729.24051125648
16	21204	93	714.73928888392
16	21422	94	700.17119618084
16	21423	95	685.35875120985
16	21635	96	670.65550001056
16	21636	97	657.6864540528
16	21638	98	649.54905604762
16	21639	99	646.54752536557
16	21640	100	636.20229597734
16	21641	101	624.28918809019
16	21642	102	612.45621975764
16	21643	103	601.08497973351
16	21644	104	589.24671927636
16	21645	105	576.01532644559
16	21646	106	561.77016203749
16	21647	107	549.70884640011
16	21648	108	535.81585316555
16	21649	109	521.79669671105
16	21650	110	508.41058876528
16	21652	111	494.13562714938
16	21653	112	479.73952722095
16	21654	113	465.71979495561
16	21655	114	451.63059631992
16	21656	115	437.50383643966
16	21657	116	423.35531567258
16	21658	117	408.06877771444
16	21659	118	393.48644256624
16	21660	119	377.82570325292
16	21661	120	362.17108285039
16	21662	121	347.60035226696
16	21663	122	332.90444237396
16	21664	123	317.91848383831
16	21667	124	302.59150675703
16	21668	125	287.50618605588
41	11	10	3.9535579137038
41	12	11	4.9501488136637
41	13	12	5.6407186206977
41	14	13	7.3654800823863
41	15	14	7.1930587001801
41	16	15	9.1503283861779
41	17	16	7.6491662299948
41	18	17	1.3589157683511
41	19	18	0.973
41	20	19	1.4486533772074
41	21	20	4.3863860232502
41	22	21	1.6158980427838
41	23	22	5.0791210005168
41	24	23	0.973
41	25	24	0.973
41	26	25	0.973
41	27	26	0.973
41	28	27	5.544732519896
41	29	28	6.207445371035
41	30	29	6.4540094925267
41	31	30	8.5273836370086
41	32	31	6.7827606757411
41	33	32	6.2065671742733
41	34	33	0.973
41	35	34	4.7632332013908
41	36	35	1.1332875634678
41	37	36	1.0987325519013
41	38	37	2.5154331971027
41	39	38	3.7869526791098
41	40	39	1.2908311181108
41	41	40	1.6061864793669
41	42	41	5.2888444116649
41	43	42	1.3211530559755
41	44	43	1.5442002044217
41	45	44	1.5233131321997
41	46	45	3.5939975022824
41	47	46	3.3194601051741
41	48	47	0.973
41	49	48	2.1650075846083
41	50	49	1.5171299724871
41	51	50	3.6452430948725
41	52	51	1.6632679561051
41	53	52	0.973
41	54	53	0.973
41	55	54	0.973
41	56	55	0.973
41	57	56	3.0544778277287
41	58	57	4.8391830244804
41	59	58	6.4744781681527
41	60	59	7.1111882234375
41	61	60	10.627401387959
41	62	61	7.3311626081767
41	63	62	0.973
41	64	63	0.973
41	65	64	0.973
41	66	65	5.6731858071333
41	67	66	4.9929900389333
41	68	67	5.403494546076
41	69	68	6.0211137108188
41	70	69	8.5428911535704
41	71	70	4.9939689294753
41	72	71	6.4034637631898
41	73	72	2.4411601765182
41	74	73	1.4040571070836
41	76	74	2.7048411175688
41	77	75	0.973
41	78	76	6.3751908313316
41	79	77	0.973
41	80	78	0.973
41	81	79	6.1022841698059
41	82	80	1.3739081069324
41	83	81	0.973
41	84	82	3.8947729464927
41	85	83	0.973
41	86	84	0.973
41	87	85	5.8786137614862
41	404	86	0.973
41	405	87	6.6319937327552
41	13976	88	0.973
41	13977	89	3.3799013163829
41	19148	90	3.3133825246148
41	19149	91	0.973
41	21203	92	3.7018995824743
41	21204	93	1.0519712965799
41	21422	94	4.5613851557224
41	21423	95	1.5537463531098
41	21635	96	2.3858726725511
41	21636	97	2.3139125604427
41	21638	98	0.973
41	21639	99	4.2503239023273
41	21640	100	0.973
41	21641	101	0.973
41	21642	102	3.7207521364344
41	21643	103	7.089701697825
41	21644	104	11.365790665352
41	21645	105	3.887325721624
41	21646	106	0.973
41	21647	107	1.5595551055195
41	21648	108	6.2886302339344
41	21649	109	0.973
41	21650	110	4.7005616224319
41	21652	111	2.1858251015513
41	21653	112	2.4501424414499
41	21654	113	0.973
41	21655	114	6.8577155952437
41	21656	115	0.973
41	21657	116	3.5487721447023
41	21658	117	3.8782784333965
41	21659	118	0.973
41	21660	119	1.9987527008651
41	21661	120	2.7774757772675
41	21662	121	4.8607477602014
41	21663	122	1.844261640906
41	21664	123	0.973
41	21667	124	1.2214309891157
41	21668	125	4.0977496516939
41	21669	126	4.3550349430693
41	21670	127	0.973
41	21671	128	4.5197002495416
41	21672	129	0.973
40	11	10	2.4155336979311
40	12	11	2.1719266681466
40	13	12	1.9519329612609
40	14	13	2.1622719867853
40	15	14	1.7529666066635
40	16	15	2.011885799258
40	17	16	1.4032669416636
40	18	17	-0.22922852167394
40	19	18	-0.80922953074332
40	20	19	-0.18785671729129
40	21	20	0.59709224253893
40	22	21	-0.15005340315402
40	23	22	0.73793340355624
40	24	23	-1.44046912383
40	25	24	-1.8577071858836
40	26	25	-4.3048646100176
40	27	26	-3.2203988052206
40	28	27	2.2776585371932
40	29	28	2.0199117310578
40	30	29	1.7447784148622
40	31	30	2.0656206130283
40	32	31	1.3384768957272
40	33	32	1.0625619743008
40	34	33	-0.83191110310145
40	35	34	0.68922916408628
40	36	35	-0.28202345431782
40	37	36	-0.28821370191872
40	38	37	0.10289216374513
40	39	38	0.42931084139273
40	40	39	-0.23900910906959
40	41	40	-0.14970234630164
40	42	41	0.79946665465832
40	43	42	-0.23711321277078
40	44	43	-0.17436415548436
40	45	44	-0.17662184832152
40	46	45	0.36699160824064
40	47	46	0.28024424170144
40	48	47	-0.77612599907443
40	49	48	0.0020038037793721
40	50	49	-0.17261843227316
40	51	50	0.39573244652711
40	52	51	-0.13761810685974
40	53	52	-0.88650746099273
40	54	53	-3.7891921758109
40	55	54	-2.7156127041094
40	56	55	-3.9037997804766
40	57	56	1.3312587077497
40	58	57	1.9380381025374
40	59	58	2.1537052321015
40	60	59	1.9580993728247
40	61	60	2.5758509419626
40	62	61	1.4021209425575
40	63	62	-1.5208919674458
40	64	63	-4.3651110400911
40	65	64	-4.0136286192574
40	66	65	2.2615903673228
40	67	66	1.5284379143734
40	68	67	1.4391225100961
40	69	68	1.4385181193007
40	70	69	1.9340074359206
40	71	70	0.80735611429643
40	72	71	1.0884809886338
40	73	72	0.050031209061853
40	74	73	-0.2167900348315
40	76	74	0.1224361584289
40	77	75	-0.88409878523089
40	78	76	1.0674162414623
40	79	77	-0.74282749285921
40	80	78	-0.39800806618296
40	81	79	1.0090001958655
40	82	80	-0.22393848295324
40	83	81	-0.49902443883475
40	84	82	0.4478311459301
40	85	83	-0.33284514325205
40	86	84	-0.41893900677096
40	87	85	0.95688230292872
40	404	86	-1.049937874428
40	405	87	1.1449618730927
40	13976	88	-0.70054919959512
40	13977	89	0.31513807345182
40	19148	90	0.2833552940283
40	19149	91	-0.91377248186618
40	21203	92	0.41369957914576
40	21204	93	-0.30231889982242
40	21422	94	0.62386605748907
40	21423	95	-0.17224739673548
40	21635	96	0.04972291965969
40	21636	97	0.029480255767703
40	21638	98	-0.80401769177988
40	21639	99	0.56336592712905
40	21640	100	-1.3540253724885
40	21641	101	-4.3006411338225
40	21642	102	0.7979054299416
40	21643	103	1.777147970628
40	21644	104	2.593293105159
40	21645	105	0.46600936872245
40	21646	106	-0.37782776644453
40	21647	107	-0.15652966958005
40	21648	108	1.0654259583913
40	21649	109	-0.84253715821542
40	21650	110	0.66117582733277
40	21652	111	-0.0072467615595091
40	21653	112	0.060947356163524
40	21654	113	-0.86881795977242
40	21655	114	1.1939350768924
40	21656	115	-1.2716249624034
40	21657	116	0.382834725664
40	21658	117	0.44631416967604
40	21659	118	-0.44090615937021
40	21660	119	-0.042200114997105
40	21661	120	0.16545796685386
40	21662	121	0.68133213212714
40	21663	122	-0.10308851185255
40	21664	123	-0.70302651086822
40	21667	124	-0.25350627403241
40	21668	125	0.51635983081069
40	21669	126	0.54902763669379
40	21670	127	-1.0908622241812
40	21671	128	0.62442819387652
40	21672	129	-0.42809409175534
35	10	9	2.0819719219108
35	11	10	4.4975056198419
35	12	11	6.6694322879885
35	13	12	8.6213652492494
35	14	13	10.783637236035
35	15	14	12.536603842698
35	16	15	14.548489641956
35	17	16	15.95175658362
35	18	17	15.722528061946
35	19	18	14.913298531203
35	20	19	14.725441813911
35	21	20	15.32253405645
35	22	21	15.172480653296
35	23	22	15.910414056852
35	24	23	14.469944933022
35	25	24	12.612237747139
35	26	25	8.3073731371213
35	27	26	5.0869743319007
35	28	27	7.3646328690939
35	29	28	9.3845446001517
35	30	29	11.129323015014
35	31	30	13.194943628042
35	32	31	14.533420523769
35	33	32	15.59598249807
35	34	33	14.764071394969
35	35	34	15.453300559055
35	36	35	15.171277104737
35	37	36	14.883063402819
35	38	37	14.985955566564
35	39	38	15.415266407956
35	40	39	15.176257298887
35	41	40	15.026554952585
35	42	41	15.826021607243
35	43	42	15.588908394473
35	44	43	15.414544238988
35	45	44	15.237922390667
35	46	45	15.604913998907
35	47	46	15.885158240609
35	48	47	15.109032241534
35	49	48	15.111036045314
35	50	49	14.938417613041
35	51	50	15.334150059568
35	52	51	15.196531952708
35	53	52	14.310024491715
35	54	53	10.520832315904
35	55	54	7.8052196117951
35	56	55	3.9014198313185
35	57	56	5.2326785390682
35	58	57	7.1707166416055
35	59	58	9.324421873707
35	60	59	11.282521246532
35	61	60	13.858372188494
35	62	61	15.260493131052
35	63	62	13.739601163606
35	64	63	9.3744901235148
35	65	64	5.3608615042575
35	66	65	7.6224518715803
35	67	66	9.1508897859536
35	68	67	10.59001229605
35	69	68	12.02853041535
35	70	69	13.962537851271
35	71	70	14.769893965567
35	72	71	15.858374954201
35	73	72	15.908406163263
35	74	73	15.691616128432
35	76	74	15.814052286861
35	77	75	14.92995350163
35	78	76	15.997369743092
35	79	77	15.254542250233
35	80	78	14.85653418405
35	81	79	15.865534379915
35	82	80	15.641595896962
35	83	81	15.142571458127
35	84	82	15.590402604057
35	85	83	15.257557460805
35	86	84	14.838618454034
35	87	85	15.795500756963
35	404	86	14.745562882535
35	405	87	15.890524755628
35	13976	88	15.189975556033
35	13977	89	15.505113629485
35	19148	90	15.788468923513
35	19149	91	14.874696441647
35	21203	92	15.288396020792
35	21204	93	14.98607712097
35	21422	94	15.609943178459
35	21423	95	15.437695781724
35	21635	96	15.487418701383
35	21636	97	15.516898957151
35	21638	98	14.712881265371
35	21639	99	15.2762471925
35	21640	100	13.922221820012
35	21641	101	9.6215806861891
35	21642	102	10.419486116131
35	21643	103	12.196634086759
35	21644	104	14.789927191918
35	21645	105	15.25593656064
35	21646	106	14.878108794196
35	21647	107	14.721579124616
35	21648	108	15.787005083007
35	21649	109	14.944467924791
35	21650	110	15.605643752124
35	21652	111	15.598396990565
35	21653	112	15.659344346728
35	21654	113	14.790526386956
35	21655	114	15.984461463848
35	21656	115	14.712836501445
35	21657	116	15.095671227109
35	21658	117	15.541985396785
35	21659	118	15.101079237415
35	21660	119	15.058879122417
35	21661	120	15.224337089271
35	21662	121	15.905669221398
35	21663	122	15.802580709546
35	21664	123	15.099554198678
35	21667	124	14.846047924645
35	21668	125	15.362407755456
35	21669	126	15.91143539215
35	21670	127	14.820573167969
35	21671	128	15.445001361845
35	21672	129	15.01690727009
31	9	8	916.51891571645
31	10	9	916.51891571645
31	11	10	918.09554157732
31	12	11	921.42740493717
31	13	12	926.251721821
31	14	13	932.4879644482
31	15	14	940.28828101795
31	16	15	949.3566015245
31	17	16	959.88021450731
31	18	17	973.53829534532
31	19	18	988.24259776602
31	20	19	1003.0647135674
31	21	20	1017.700121243
31	22	21	1032.9289704261
31	23	22	1048.008683661
31	24	23	1063.8159631866
31	25	24	1077.8805432267
31	26	25	1090.6305737841
31	27	26	1099.0810252316
31	28	27	1104.1579131685
31	29	28	1111.547850842
31	30	29	1120.746246024
31	31	30	1131.0488000697
31	32	31	1143.1740278665
31	33	32	1156.8333881769
31	34	33	1172.3322235493
31	35	34	1185.361595386
31	36	35	1197.0772054069
31	37	36	1206.4193594634
31	38	37	1210.516670218
31	39	38	1214.0290775675
31	40	39	1218.046015415
31	41	40	1222.1020240906
[...]
202	21932	381	15.641781800194
202	21933	382	15.50465432161
202	21934	383	15.595036938065
202	21935	384	15.439231699379
202	21936	385	15.759769864124
202	21937	386	15.425076637394
202	21938	387	15.113531751651
198	52	51	916.51891571645
198	53	52	916.51891571645
198	54	53	918.07116763108
198	55	54	920.71425243763
198	56	55	924.93122515039
198	57	56	930.09964904518
198	58	57	936.74328826725
198	59	58	944.39307498871
198	60	59	953.74041507528
198	61	60	964.82135185398
198	62	61	979.69574011499
198	63	62	994.41869922159
198	64	63	1010.0657147887
198	65	64	1024.7667763955
198	66	65	1039.6836886673
198	67	66	1054.5506984884
198	68	67	1069.3327015604
198	69	68	1084.4734327263
198	70	69	1095.3102673692
198	71	70	1101.6942210611
198	72	71	1109.6071179702
198	73	72	1119.4490088882
198	74	73	1131.4280387862
198	76	74	1144.717986176
198	77	75	1158.9422591891
198	78	76	1173.1964797245
198	79	77	1185.5732687015
198	80	78	1196.2818581907
198	81	79	1204.6525245915
198	82	80	1208.1567915354
198	83	81	1211.6486394926
198	84	82	1215.6131464108
198	85	83	1219.7007948798
198	86	84	1223.1799718809
198	87	85	1226.6925127497
198	404	86	1230.8766840552
198	405	87	1235.4748538413
198	13976	88	1239.8219370529
198	13977	89	1243.2404314996
198	19148	90	1245.4087688937
198	19149	91	1247.3903548281
198	21203	92	1249.2731561801
198	21204	93	1251.6648898231
198	21422	94	1254.9135130349
198	21423	95	1257.5369425825
198	21635	96	1253.9915457767
198	21636	97	1243.8094211994
198	21638	98	1228.7963992093
198	21639	99	1213.5962378603
198	21640	100	1198.0425497434
198	21641	101	1183.1620742576
198	21642	102	1172.6461566762
198	21643	103	1166.9514563688
198	21644	104	1164.8292155669
198	21645	105	1165.8946093085
198	21646	106	1167.031938981
198	21647	107	1168.3390233036
198	21648	108	1169.802583488
198	21649	109	1171.3027788219
198	21650	110	1172.7678814943
198	21652	111	1173.806852324
198	21653	112	1166.3302270387
198	21654	113	1155.8966103974
198	21655	114	1149.0320952821
198	21656	115	1145.2160767325
198	21657	116	1146.4968292585
198	21658	117	1152.8996009225
198	21659	118	1157.20520285
198	21660	119	1157.9544775407
198	21661	120	1158.0880760511
198	21662	121	1158.0909763515
198	21663	122	1158.0911541733
198	21664	123	1158.0911541733
198	21667	124	1158.0911541733
198	21668	125	1158.0911541733
198	21669	126	1158.0911541733
198	21670	127	1158.0911541733
198	21671	128	1158.0911541733
198	21672	129	1158.0911541733
198	21673	130	1158.0911541733
198	21674	131	1158.0911541733
198	21675	132	1158.0911541733
198	21676	133	1158.0911541733
198	21677	134	1158.0911541733
198	21678	135	1158.0911541733
198	21680	136	1158.0911541733
198	21682	137	1158.0911541733
198	21683	138	1158.0911541733
198	21684	139	1158.0911541733
198	21685	140	1158.0911541733
198	21686	141	1158.0911541733
198	21687	142	1158.0911541733
198	21688	143	1158.0911541733
198	21689	144	1158.0911541733
198	21690	145	1158.0911541733
198	21691	146	1158.0911541733
198	21692	147	1158.0911541733
198	21694	148	1158.0911541733
198	21695	149	1158.0911541733
198	21697	150	1158.0911541733
198	21698	151	1158.0911541733
198	21699	152	1158.0911541733
198	21700	153	1158.0911541733
198	21701	154	1158.0911541733
198	21702	155	1158.0911541733
198	21703	156	1158.0911541733
198	21704	157	1158.0911541733
198	21705	158	1158.0911541733
198	21706	159	1158.0911541733
198	21707	160	1158.0911541733
198	21709	161	1158.0911541733
198	21710	162	1158.0911541733
198	21711	163	1158.0911541733
198	21712	164	1158.0911541733
198	21713	165	1158.0911541733
198	21714	166	1158.0911541733
198	21715	167	1158.0911541733
198	21716	168	1158.0911541733
198	21717	169	1158.0911541733
198	21718	170	1158.0911541733
198	21719	171	1158.0911541733
198	21720	172	1158.0911541733
198	21721	173	1158.0911541733
198	21723	174	1158.0911541733
198	21724	175	1159.8619295266
198	21725	176	1162.8796972262
198	21726	177	1167.9324629679
198	21727	178	1174.4761646762
198	21728	179	1182.676440745
198	21729	180	1191.956511143
198	21730	181	1202.6010237439
198	21731	182	1214.2528669067
198	21732	183	1226.9999343134
198	21733	184	1241.1792343426
198	21734	185	1256.1600945276
198	21735	186	1271.175964323
198	21737	187	1286.1932743508
198	21738	188	1300.4688684309
198	21739	189	1315.0961043554
198	21740	190	1328.9815567295
198	21741	191	1342.0872549009
198	21742	192	1353.3653654798
198	21743	193	1364.9312212739
198	21744	194	1376.1379734415
198	21745	195	1386.1186615152
198	21746	196	1395.1240824786
198	21747	197	1404.6640319466
198	21748	198	1417.7527140325
198	21749	199	1431.2449434138
198	21751	200	1444.2354869304
198	21752	201	1459.5904675991
198	21753	202	1474.466549199
198	21754	203	1488.0984874596
198	21755	204	1501.1241341379
198	21756	205	1514.0903321983
198	21757	206	1528.0517431509
198	21758	207	1540.9955217471
198	21759	208	1553.2669765954
198	21760	209	1565.7525692542
198	21761	210	1578.7254335193
198	21762	211	1592.8394996196
198	21763	212	1606.9113953974
198	21764	213	1616.7360953774
198	21765	214	1622.4248590646
198	21766	215	1623.785854442
198	21767	216	1624.0276922188
198	21768	217	1625.3669011048
198	21769	218	1628.9799956701
198	21770	219	1633.7769408935
198	21771	220	1636.5753264392
198	21772	221	1638.0344343054
198	21773	222	1639.9564025666
198	21774	223	1642.3788554961
198	21775	224	1645.1778799288
198	21776	225	1648.217612365
198	21777	226	1651.1474372991
198	21778	227	1654.0061092499
198	21779	228	1656.9342619919
198	21780	229	1660.0219445516
198	21781	230	1662.9369614708
198	21782	231	1665.9558960651
198	21783	232	1668.8860660504
198	21784	233	1671.8318560211
198	21785	234	1674.8269061544
198	21786	235	1677.7520759647
198	21787	236	1680.7572531154
198	21788	237	1683.7190202932
198	21789	238	1686.7485599647
198	21790	239	1689.8119784169
198	21791	240	1691.7666889421
198	21792	241	1694.363301562
198	21793	242	1697.1611375236
198	21794	243	1699.8148916481
198	21795	244	1701.7275896977
198	21796	245	1702.9492382242
198	21797	246	1701.2549914445
198	21798	247	1699.843615176
198	21799	248	1699.606243977
198	21800	249	1699.5365273147
198	21801	250	1699.3759259322
198	21802	251	1698.6897667818
198	21803	252	1697.814204073
198	21804	253	1695.7234788361
198	21805	254	1691.9484768831
198	21806	255	1687.61962857
198	21807	256	1684.1950458677
198	21808	257	1679.4600846
198	21809	258	1676.2683582426
198	21810	259	1673.839392058
198	21811	260	1671.9286939165
198	21812	261	1670.2995294222
198	21813	262	1669.1038979716
198	21814	263	1668.6411612292
198	21815	264	1668.9918425998
198	21816	265	1670.0702908934
198	21817	266	1671.218373347
198	21818	267	1672.0026740656
198	21819	268	1672.6557781114
198	21820	269	1673.0431905456
198	21821	270	1673.156745069
198	21822	271	1673.1691777077
198	21823	272	1673.1723696132
198	21824	273	1673.1725876298
198	21825	274	1673.1726510107
198	21826	275	1673.1726510107
198	21827	276	1673.1726894914
198	21828	277	1673.1726894914
198	21829	278	1673.1726894914
198	21830	279	1673.1726894914
198	21831	280	1673.1726894914
198	21832	281	1673.1726894914
198	21833	282	1673.1726894914
198	21834	283	1673.1726894914
198	21835	284	1673.1726894914
198	21836	285	1673.1726894914
198	21837	286	1673.1726894914
198	21838	287	1673.1726894914
198	21839	288	1673.1726894914
198	21840	289	1673.1726894914
198	21841	290	1673.1726894914
198	21842	291	1673.1726894914
198	21843	292	1673.4824432081
198	21844	293	1674.1618816643
198	21845	294	1675.1134159661
198	21846	295	1672.9116504091
198	21847	296	1669.7013816306
198	21848	297	1662.7785548249
198	21849	298	1653.4760749372
198	21850	299	1642.3711862792
198	21851	300	1628.9371139483
198	21852	301	1613.3261462698
198	21853	302	1598.1532229782
198	21854	303	1582.0566374899
198	21855	304	1566.6898050994
198	21856	305	1553.6590605434
198	21857	306	1545.7079208912
198	21858	307	1537.2783216298
198	21859	308	1528.4103080059
198	21860	309	1519.6728777568
198	21861	310	1510.7844418436
198	21862	311	1502.4372060243
198	21863	312	1493.3363909737
198	21864	313	1485.3202014285
198	21865	314	1476.7160451031
198	21866	315	1468.5799188736
198	21867	316	1460.5646565843
198	21868	317	1452.4791620895
198	21869	318	1444.0958287449
198	21870	319	1435.4401736511
198	21871	320	1427.4679908686
198	21872	321	1418.8736299872
198	21873	322	1410.9993107755
198	21874	323	1402.469578877
198	21875	324	1395.0504224363
198	21876	325	1387.6265321615
198	21877	326	1378.8957728213
198	21878	327	1369.8882205171
198	21879	328	1364.6122186718
198	21880	329	1365.6315709779
198	21881	330	1368.7454532769
198	21882	331	1372.0858850681
198	21883	332	1375.3625625675
198	21884	333	1378.4839367812
198	21885	334	1381.5240886808
198	21886	335	1385.1176166083
198	21887	336	1389.5362575932
198	21888	337	1393.9211866841
198	21889	338	1398.5864412421
198	21890	339	1403.071388258
198	21891	340	1407.9541388614
198	21892	341	1412.7543498576
198	21893	342	1417.1312052395
198	21894	343	1421.0036932496
198	21895	344	1424.8814680053
198	21896	345	1431.8014627048
198	21897	346	1437.057397189
198	21898	347	1443.1192764457
198	21899	348	1450.2439934174
198	21900	349	1458.1442112212
198	21901	350	1465.5619388014
198	21902	351	1472.1751681757
198	21903	352	1477.5771097506
198	21904	353	1480.8995144836
198	21905	354	1485.3939653775
198	21906	355	1488.5270706666
198	21907	356	1493.6466870088
198	21908	357	1499.5216675298
198	21909	358	1505.609916614
198	21910	359	1510.1822487373
198	21911	360	1516.4785336979
198	21912	361	1522.4817429659
198	21913	362	1528.166317056
198	21914	363	1535.362166496
198	21915	364	1544.6321556503
198	21916	365	1555.155827311
198	21917	366	1565.4291946902
198	21918	367	1572.5627243882
198	21919	368	1582.6239930507
198	21920	369	1590.0739964998
198	21921	370	1597.6054663675
198	21922	371	1605.095497816
198	21923	372	1611.9555485496
198	21924	373	1618.701905211
198	21925	374	1624.396848603
198	21926	375	1629.7919849885
198	21927	376	1634.5368974562
198	21928	377	1639.2076785827
198	21929	378	1643.9696098672
198	21930	379	1647.8180456318
198	21931	380	1650.7326477189
198	21932	381	1653.5933433208
198	21933	382	1656.3856679747
198	21934	383	1658.8514013428
198	21935	384	1661.233491408
198	21936	385	1663.5448554919
198	21937	386	1664.5343503801
198	21938	387	1665.1850382229
197	52	51	1593.3739804024
197	53	52	1593.3739804024
197	54	53	1591.9974551196
197	55	54	1589.5741316137
197	56	55	1585.4468607516
197	57	56	1580.3883776175
197	58	57	1573.8860593794
197	59	58	1566.3989960314
197	60	59	1557.2504890322
197	61	60	1547.3193406902
197	62	61	1541.443471781
197	63	62	1541.5987688072
197	64	63	1542.8397636482
197	65	64	1544.0057330647
197	66	65	1545.1888220118
197	67	66	1546.3674448497
197	68	67	1547.7126653693
197	69	68	1549.1435518964
197	70	69	1549.5028663416
197	71	70	1549.0362930706
197	72	71	1547.5660292865
197	73	72	1545.0644794475
197	74	73	1540.2951709608
197	76	74	1534.7466547194
197	77	75	1530.3637096649
197	78	76	1526.9204006609
197	79	77	1518.6865638317
197	80	78	1508.8945784717
197	81	79	1497.108412534
197	82	80	1482.1445778997
197	83	81	1467.713557279
197	84	82	1453.2774738533
197	85	83	1438.1837548826
197	86	84	1423.7758159286
197	87	85	1409.2666981489
197	404	86	1394.7971693309
197	405	87	1379.7589227196
197	13976	88	1365.5418510544
197	13977	89	1350.4134961971
197	19148	90	1335.1725105183
197	19149	91	1319.5046646538
197	21203	92	1304.1846545531
197	21204	93	1289.1157330847
197	21422	94	1274.3870034279
197	21423	95	1259.5127587623
197	21635	96	1244.8708776557
197	21636	97	1234.113268036
197	21638	98	1229.8838529193
197	21639	99	1228.4216254163
197	21640	100	1226.9253892898
197	21641	101	1225.4939149775
197	21642	102	1222.7329188528
197	21643	103	1218.8364289386
197	21644	104	1210.8419798795
197	21645	105	1200.3711034551
197	21646	106	1188.7514537325
197	21647	107	1175.3794474072
197	21648	108	1160.3432672989
197	21649	109	1145.0014259545
197	21650	110	1130.018461906
197	21652	111	1114.3357495281
197	21653	112	1100.9275177958
197	21654	113	1094.5233051987
197	21655	114	1090.1718857539
197	21656	115	1083.0951056085
197	21657	116	1074.3765210372
197	21658	117	1067.6459301601
197	21659	118	1066.1250563959
197	21660	119	1066.0456939677
197	21661	120	1066.0315433466
197	21662	121	1066.0312361497
197	21663	122	1066.031217315
197	21664	123	1066.031217315
197	21667	124	1066.031217315
197	21668	125	1066.031217315
197	21669	126	1066.031217315
197	21670	127	1066.031217315
197	21671	128	1066.031217315
197	21672	129	1066.031217315
197	21673	130	1066.031217315
197	21674	131	1066.031217315
197	21675	132	1066.031217315
197	21676	133	1066.031217315
197	21677	134	1066.031217315
197	21678	135	1066.031217315
197	21680	136	1066.031217315
197	21682	137	1066.031217315
197	21683	138	1066.031217315
197	21684	139	1066.031217315
197	21685	140	1066.031217315
197	21686	141	1066.031217315
197	21687	142	1066.031217315
197	21688	143	1066.031217315
197	21689	144	1066.031217315
197	21690	145	1066.031217315
197	21691	146	1066.031217315
197	21692	147	1066.031217315
197	21694	148	1066.031217315
197	21695	149	1066.031217315
197	21697	150	1066.031217315
197	21698	151	1066.031217315
197	21699	152	1066.031217315
197	21700	153	1066.031217315
197	21701	154	1066.031217315
197	21702	155	1066.031217315
197	21703	156	1066.031217315
197	21704	157	1066.031217315
197	21705	158	1066.031217315
197	21706	159	1066.031217315
197	21707	160	1066.031217315
197	21709	161	1066.031217315
197	21710	162	1066.031217315
197	21711	163	1066.031217315
197	21712	164	1066.031217315
197	21713	165	1066.031217315
197	21714	166	1066.031217315
197	21715	167	1066.031217315
197	21716	168	1066.031217315
197	21717	169	1066.031217315
197	21718	170	1066.031217315
197	21719	171	1066.031217315
197	21720	172	1066.031217315
197	21721	173	1066.031217315
197	21723	174	1066.031217315
197	21724	175	1066.0040217741
197	21725	176	1066.5941630131
197	21726	177	1068.9328404739
197	21727	178	1073.1117637618
197	21728	179	1079.3079794078
197	21729	180	1086.9616767796
197	21730	181	1096.0449474202
197	21731	182	1105.9878023802
197	21732	183	1115.0961342128
197	21733	184	1122.0315847577
197	21734	185	1127.1784152113
197	21735	186	1132.3372735809
197	21737	187	1137.4966267574
197	21738	188	1142.3320614752
197	21739	189	1147.1480150349
197	21740	190	1152.1780173613
197	21741	191	1160.9971555951
197	21742	192	1171.2413735626
197	21743	193	1181.7737858913
197	21744	194	1191.9998540733
197	21745	195	1203.7441860704
197	21746	196	1216.4977974487
197	21747	197	1228.4105239599
197	21748	198	1235.2406862308
197	21749	199	1240.813563584
197	21751	200	1248.1856463128
197	21752	201	1251.0019711187
197	21753	202	1256.6242957907
197	21754	203	1262.7788262337
197	21755	204	1270.1632544122
197	21756	205	1277.5232144487
197	21757	206	1285.5166757125
197	21758	207	1293.641525632
197	21759	208	1303.3469329691
197	21760	209	1312.9773059519
197	21761	210	1319.973222613
197	21762	211	1325.6320754564
197	21763	212	1329.4756658423
197	21764	213	1331.9456309651
197	21765	214	1333.3758067393
197	21766	215	1333.7179659015
197	21767	216	1333.7787647936
197	21768	217	1334.1154467531
197	21769	218	1335.0237917998
197	21770	219	1335.0319671741
197	21771	220	1330.4514008631
197	21772	221	1323.0584759592
197	21773	222	1313.3368571844
197	21774	223	1301.0837079746
197	21775	224	1286.9258006747
197	21776	225	1271.550354306
197	21777	226	1256.7308374275
197	21778	227	1242.2712235678
197	21779	228	1227.4601649012
197	21780	229	1211.8421792405
197	21781	230	1197.0975636387
197	21782	231	1181.8273160368
197	21783	232	1167.0129055532
197	21784	233	1152.2428504529
197	21785	234	1137.3497196294
197	21786	235	1122.8040744064
197	21787	236	1107.8605861637
197	21788	237	1093.132957549
197	21789	238	1078.0683246869
197	21790	239	1062.8352268269
197	21791	240	1047.8283706141
197	21792	241	1032.3815040785
197	21793	242	1017.9341093432
197	21794	243	1003.634119642
197	21795	244	993.25763453538
197	21796	245	985.04602846715
197	21797	246	981.676147265
197	21798	247	980.64618755247
197	21799	248	980.5172704358
197	21800	249	980.47940707607
197	21801	250	980.39218391143
197	21802	251	980.0195285108
197	21803	252	979.54400738449
197	21804	253	978.59961438478
197	21805	254	977.36308861507
197	21806	255	975.2347593643
197	21807	256	973.35758069783
197	21808	257	970.39936458531
197	21809	258	967.18894673745
197	21810	259	963.4890107728
197	21811	260	959.99196139664
197	21812	261	955.6312329225
197	21813	262	950.63627241555
197	21814	263	946.48208962083
197	21815	264	940.12462434074
197	21816	265	933.78988659217
197	21817	266	928.90395950036
197	21818	267	925.94141182798
197	21819	268	923.47443478104
197	21820	269	922.01105756097
197	21821	270	921.5821268191
197	21822	271	921.53516487708
197	21823	272	921.52310805766
197	21824	273	921.52228454103
197	21825	274	921.52204513197
197	21826	275	921.52204513197
197	21827	276	921.52189977835
197	21828	277	921.52189977835
197	21829	278	921.52189977835
197	21830	279	921.52189977835
197	21831	280	921.52189977835
197	21832	281	921.52189977835
197	21833	282	921.52189977835
197	21834	283	921.52189977835
197	21835	284	921.52189977835
197	21836	285	921.52189977835
197	21837	286	921.52189977835
197	21838	287	921.52189977835
197	21839	288	921.52189977835
197	21840	289	921.52189977835
197	21841	290	921.52189977835
197	21842	291	921.52189977835
197	21843	292	920.35186368024
197	21844	293	917.78811035902
197	21845	294	913.14939593711
197	21846	295	908.5879993977
197	21847	296	903.83188641268
197	21848	297	901.75647366901
197	21849	298	900.11450686062
197	21850	299	898.63298885584
197	21851	300	897.86129052616
197	21852	301	897.32397757985
197	21853	302	897.61758556911
197	21854	303	899.02887411476
197	21855	304	901.67098812794
197	21856	305	905.34529112118
197	21857	306	908.8825505124
197	21858	307	910.18069680591
197	21859	308	912.10011282616
197	21860	309	915.45676626883
197	21861	310	918.81902027642
197	21862	311	921.9765529807
197	21863	312	925.41914425042
197	21864	313	928.45145113626
197	21865	314	931.70616989326
197	21866	315	934.78384557077
197	21867	316	937.81580170087
197	21868	317	940.87432476773
197	21869	318	944.04551218583
197	21870	319	947.31971152885
197	21871	320	950.4612808692
197	21872	321	953.8561531199
197	21873	322	957.62910701484
197	21874	323	961.99588781811
197	21875	324	966.49806487332
197	21876	325	970.7141439503
197	21877	326	972.8783326934
197	21878	327	970.87462011574
197	21879	328	963.66176854661
197	21880	329	954.53181376886
197	21881	330	946.5363275928
197	21882	331	937.95913242468
197	21883	332	929.49020969635
197	21884	333	921.37619938102
197	21885	334	913.47332642053
197	21886	335	905.64882625147
197	21887	336	897.8054872434
197	21888	337	890.47577490142
197	21889	338	882.74012747344
197	21890	339	875.30345527986
197	21891	340	867.20716885506
197	21892	341	859.24774469409
197	21893	342	851.91393522424
197	21894	343	844.40235639038
197	21895	344	836.88052270068
197	21896	345	830.88569685177
197	21897	346	821.8565079596
197	21898	347	811.44278362273
197	21899	348	799.20320652453
197	21900	349	785.63139373755
197	21901	350	771.54244219772
197	21902	351	757.54060978215
197	21903	352	742.8517031747
197	21904	353	728.39386049769
197	21905	354	714.04083463056
197	21906	355	698.45032519389
197	21907	356	683.89287189551
197	21908	357	670.13870380322
197	21909	358	658.51742331855
197	21910	359	650.85392078166
197	21911	360	647.75043126532
197	21912	361	642.19895500322
197	21913	362	632.96793649579
197	21914	363	622.99620305699
197	21915	364	611.72587743944
197	21916	365	599.47397817455
197	21917	366	587.51348887973
197	21918	367	573.16204489304
197	21919	368	560.43329321069
197	21920	369	546.95843015663
197	21921	370	533.33621833421
197	21922	371	519.78895641306
197	21923	372	506.7016853206
197	21924	373	492.44253301123
197	21925	374	478.7515148403
197	21926	375	464.3086378105
197	21927	376	450.09244043562
197	21928	377	435.7121580616
197	21929	378	421.05124489473
197	21930	379	406.46149999697
197	21931	380	392.0241763675
197	21932	381	376.3369923333
197	21933	382	361.00024161542
197	21934	383	345.72995267861
197	21935	384	330.31334533717
197	21936	385	315.04360316422
197	21937	386	299.32457200342
197	21938	387	283.90875525355
