version 2
run Default-0-20200730-19:17:26-91284
attr configname Default
attr datetime 20200730-19:17:26
attr experiment Default
attr inifile omnetpp.ini
attr iterationvars ""
attr iterationvarsf ""
attr measurement ""
attr network RSUExampleCatania
attr processid 91284
attr repetition 0
attr replication #0
attr resultdir results
attr runnumber 0
attr seedset 0
param *.playgroundSizeX 3000m
param *.playgroundSizeY 3000m
param *.playgroundSizeZ 50m
param *.annotations.draw true
param *.obstacles.obstacles "xmldoc(\"config.xml\", \"//AnalogueModel[@type='SimpleObstacleShadowing']/obstacles\")"
param *.manager.updateInterval 1s
param *.manager.host "\"localhost\""
param *.manager.port 9999
param *.manager.autoShutdown true
param *.manager.launchConfig "xmldoc(\"catania.launchd.xml\")"
param *.rsu[0].mobility.x 2000
param *.rsu[0].mobility.y 2000
param *.rsu[0].mobility.z 3
param *.rsu[*].applType "\"TraCIDemoRSU11p\""
param *.rsu[*].appl.headerLength "80 bit"
param *.rsu[*].appl.sendBeacons false
param *.rsu[*].appl.dataOnSch false
param *.rsu[*].appl.beaconInterval 1s
param *.rsu[*].appl.beaconUserPriority 7
param *.rsu[*].appl.dataUserPriority 5
param *.rsu[*].nic.phy80211p.antennaOffsetZ "0 m"
param *.connectionManager.sendDirect true
param *.connectionManager.maxInterfDist 2600m
param *.connectionManager.drawMaxIntfDist false
param *.**.nic.mac1609_4.useServiceChannel false
param *.**.nic.mac1609_4.txPower 20mW
param *.**.nic.mac1609_4.bitrate 6Mbps
param *.**.nic.phy80211p.minPowerLevel -110dBm
param *.**.nic.phy80211p.useNoiseFloor true
param *.**.nic.phy80211p.noiseFloor -98dBm
param *.**.nic.phy80211p.decider "xmldoc(\"config.xml\")"
param *.**.nic.phy80211p.analogueModels "xmldoc(\"config.xml\")"
param *.**.nic.phy80211p.usePropagationDelay true
param *.**.nic.phy80211p.antenna "xmldoc(\"antenna.xml\", \"/root/Antenna[@id='monopole']\")"
param *.node[*].nic.phy80211p.antennaOffsetY "0 m"
param *.node[*].nic.phy80211p.antennaOffsetZ "1000 m"
param *.node[*].applType "\"TraCIDemo11p\""
param *.node[*].appl.headerLength "80 bit"
param *.node[*].appl.sendBeacons false
param *.node[*].appl.dataOnSch false
param *.node[*].appl.beaconInterval 1s
param *.node[*].veinsmobility.x 0
param *.node[*].veinsmobility.y 0
param *.node[*].veinsmobility.z 0
param *.node[*].veinsmobility.setHostSpeed false
param *.node[*0].veinsmobility.accidentCount 1
param *.node[*0].veinsmobility.accidentStart 73s
param *.node[*0].veinsmobility.accidentDuration 50s

scalar RSUExampleCatania.node[1].appl generatedWSMs 1
scalar RSUExampleCatania.node[1].appl receivedWSMs 23
scalar RSUExampleCatania.node[1].appl generatedBSMs 0
scalar RSUExampleCatania.node[1].appl receivedBSMs 0
scalar RSUExampleCatania.node[1].appl generatedWSAs 0
scalar RSUExampleCatania.node[1].appl receivedWSAs 0
scalar RSUExampleCatania.node[1].nic.phy80211p busyTime 9.0866666666667e-05
scalar RSUExampleCatania.node[1].nic.mac1609_4 ReceivedUnicastPackets 0
scalar RSUExampleCatania.node[1].nic.mac1609_4 ReceivedBroadcasts 23
scalar RSUExampleCatania.node[1].nic.mac1609_4 SentPackets 1
scalar RSUExampleCatania.node[1].nic.mac1609_4 SentAcknowledgements 0
scalar RSUExampleCatania.node[1].nic.mac1609_4 SNIRLostPackets 24
scalar RSUExampleCatania.node[1].nic.mac1609_4 RXTXLostPackets 0
scalar RSUExampleCatania.node[1].nic.mac1609_4 TotalLostPackets 24
scalar RSUExampleCatania.node[1].nic.mac1609_4 DroppedPacketsInMac 0
scalar RSUExampleCatania.node[1].nic.mac1609_4 TooLittleTime 0
scalar RSUExampleCatania.node[1].nic.mac1609_4 TimesIntoBackoff 1
scalar RSUExampleCatania.node[1].nic.mac1609_4 SlotsBackoff 2
scalar RSUExampleCatania.node[1].nic.mac1609_4 NumInternalContention 0
scalar RSUExampleCatania.node[1].nic.mac1609_4 totalBusyTime 0.010905
scalar RSUExampleCatania.node[1].veinsmobility startTime 1
scalar RSUExampleCatania.node[1].veinsmobility totalTime 119
scalar RSUExampleCatania.node[1].veinsmobility stopTime 121
scalar RSUExampleCatania.node[1].veinsmobility minSpeed 2.5772626519203
scalar RSUExampleCatania.node[1].veinsmobility maxSpeed 15.986513594398
scalar RSUExampleCatania.node[1].veinsmobility totalDistance 1647.6256857303
scalar RSUExampleCatania.node[1].veinsmobility totalCO2Emission 382.15668549964
scalar RSUExampleCatania.node[3].appl generatedWSMs 1
scalar RSUExampleCatania.node[3].appl receivedWSMs 24
scalar RSUExampleCatania.node[3].appl generatedBSMs 0
scalar RSUExampleCatania.node[3].appl receivedBSMs 0
scalar RSUExampleCatania.node[3].appl generatedWSAs 0
scalar RSUExampleCatania.node[3].appl receivedWSAs 0
scalar RSUExampleCatania.node[3].nic.phy80211p busyTime 8.5066666666667e-05
scalar RSUExampleCatania.node[3].nic.mac1609_4 ReceivedUnicastPackets 0
scalar RSUExampleCatania.node[3].nic.mac1609_4 ReceivedBroadcasts 24
scalar RSUExampleCatania.node[3].nic.mac1609_4 SentPackets 1
scalar RSUExampleCatania.node[3].nic.mac1609_4 SentAcknowledgements 0
scalar RSUExampleCatania.node[3].nic.mac1609_4 SNIRLostPackets 20
scalar RSUExampleCatania.node[3].nic.mac1609_4 RXTXLostPackets 0
scalar RSUExampleCatania.node[3].nic.mac1609_4 TotalLostPackets 20
scalar RSUExampleCatania.node[3].nic.mac1609_4 DroppedPacketsInMac 0
scalar RSUExampleCatania.node[3].nic.mac1609_4 TooLittleTime 0
scalar RSUExampleCatania.node[3].nic.mac1609_4 TimesIntoBackoff 1
scalar RSUExampleCatania.node[3].nic.mac1609_4 SlotsBackoff 2
scalar RSUExampleCatania.node[3].nic.mac1609_4 NumInternalContention 0
scalar RSUExampleCatania.node[3].nic.mac1609_4 totalBusyTime 0.010209
scalar RSUExampleCatania.node[3].veinsmobility startTime 3
scalar RSUExampleCatania.node[3].veinsmobility totalTime 119
scalar RSUExampleCatania.node[3].veinsmobility stopTime 123
scalar RSUExampleCatania.node[3].veinsmobility minSpeed 2.0125663528328
scalar RSUExampleCatania.node[3].veinsmobility maxSpeed 15.991900665918
scalar RSUExampleCatania.node[3].veinsmobility totalDistance 1657.7660928452
scalar RSUExampleCatania.node[3].veinsmobility totalCO2Emission 389.73633935487
scalar RSUExampleCatania.node[4].appl generatedWSMs 1
scalar RSUExampleCatania.node[4].appl receivedWSMs 27
scalar RSUExampleCatania.node[4].appl generatedBSMs 0
scalar RSUExampleCatania.node[4].appl receivedBSMs 0
scalar RSUExampleCatania.node[4].appl generatedWSAs 0
scalar RSUExampleCatania.node[4].appl receivedWSAs 0
scalar RSUExampleCatania.node[4].nic.phy80211p busyTime 8.2446280991735e-05
scalar RSUExampleCatania.node[4].nic.mac1609_4 ReceivedUnicastPackets 0
scalar RSUExampleCatania.node[4].nic.mac1609_4 ReceivedBroadcasts 27
scalar RSUExampleCatania.node[4].nic.mac1609_4 SentPackets 1
scalar RSUExampleCatania.node[4].nic.mac1609_4 SentAcknowledgements 0
scalar RSUExampleCatania.node[4].nic.mac1609_4 SNIRLostPackets 16
scalar RSUExampleCatania.node[4].nic.mac1609_4 RXTXLostPackets 0
scalar RSUExampleCatania.node[4].nic.mac1609_4 TotalLostPackets 16
scalar RSUExampleCatania.node[4].nic.mac1609_4 DroppedPacketsInMac 0
scalar RSUExampleCatania.node[4].nic.mac1609_4 TooLittleTime 0
scalar RSUExampleCatania.node[4].nic.mac1609_4 TimesIntoBackoff 1
scalar RSUExampleCatania.node[4].nic.mac1609_4 SlotsBackoff 2
scalar RSUExampleCatania.node[4].nic.mac1609_4 NumInternalContention 0
scalar RSUExampleCatania.node[4].nic.mac1609_4 totalBusyTime 0.009977
scalar RSUExampleCatania.node[4].veinsmobility startTime 5
scalar RSUExampleCatania.node[4].veinsmobility totalTime 120
scalar RSUExampleCatania.node[4].veinsmobility stopTime 126
scalar RSUExampleCatania.node[4].veinsmobility minSpeed 0.43621021959526
scalar RSUExampleCatania.node[4].veinsmobility maxSpeed 15.990193969943
scalar RSUExampleCatania.node[4].veinsmobility totalDistance 1648.7553804894
scalar RSUExampleCatania.node[4].veinsmobility totalCO2Emission 400.39522728749
scalar RSUExampleCatania.node[7].appl generatedWSMs 1
scalar RSUExampleCatania.node[7].appl receivedWSMs 30
scalar RSUExampleCatania.node[7].appl generatedBSMs 0
scalar RSUExampleCatania.node[7].appl receivedBSMs 0
scalar RSUExampleCatania.node[7].appl generatedWSAs 0
scalar RSUExampleCatania.node[7].appl receivedWSAs 0
scalar RSUExampleCatania.node[7].nic.phy80211p busyTime 9.127868852459e-05
scalar RSUExampleCatania.node[7].nic.mac1609_4 ReceivedUnicastPackets 0
scalar RSUExampleCatania.node[7].nic.mac1609_4 ReceivedBroadcasts 30
scalar RSUExampleCatania.node[7].nic.mac1609_4 SentPackets 1
scalar RSUExampleCatania.node[7].nic.mac1609_4 SentAcknowledgements 0
scalar RSUExampleCatania.node[7].nic.mac1609_4 SNIRLostPackets 18
scalar RSUExampleCatania.node[7].nic.mac1609_4 RXTXLostPackets 0
scalar RSUExampleCatania.node[7].nic.mac1609_4 TotalLostPackets 18
scalar RSUExampleCatania.node[7].nic.mac1609_4 DroppedPacketsInMac 0
scalar RSUExampleCatania.node[7].nic.mac1609_4 TooLittleTime 0
scalar RSUExampleCatania.node[7].nic.mac1609_4 TimesIntoBackoff 1
scalar RSUExampleCatania.node[7].nic.mac1609_4 SlotsBackoff 0
scalar RSUExampleCatania.node[7].nic.mac1609_4 NumInternalContention 0
scalar RSUExampleCatania.node[7].nic.mac1609_4 totalBusyTime 0.011137
scalar RSUExampleCatania.node[7].veinsmobility startTime 8
scalar RSUExampleCatania.node[7].veinsmobility totalTime 121
scalar RSUExampleCatania.node[7].veinsmobility stopTime 130
scalar RSUExampleCatania.node[7].veinsmobility minSpeed 2.0819719219108
scalar RSUExampleCatania.node[7].veinsmobility maxSpeed 15.997369743092
scalar RSUExampleCatania.node[7].veinsmobility totalDistance 1655.7456035671
scalar RSUExampleCatania.node[7].veinsmobility totalCO2Emission 402.36902675507
scalar RSUExampleCatania.node[8].appl generatedWSMs 1
scalar RSUExampleCatania.node[8].appl receivedWSMs 30
scalar RSUExampleCatania.node[8].appl generatedBSMs 0
scalar RSUExampleCatania.node[8].appl receivedBSMs 0
scalar RSUExampleCatania.node[8].appl generatedWSAs 0
scalar RSUExampleCatania.node[8].appl receivedWSAs 0
scalar RSUExampleCatania.node[8].nic.phy80211p busyTime 9.0536585365854e-05
scalar RSUExampleCatania.node[8].nic.mac1609_4 ReceivedUnicastPackets 0
scalar RSUExampleCatania.node[8].nic.mac1609_4 ReceivedBroadcasts 30
scalar RSUExampleCatania.node[8].nic.mac1609_4 SentPackets 1
scalar RSUExampleCatania.node[8].nic.mac1609_4 SentAcknowledgements 0
scalar RSUExampleCatania.node[8].nic.mac1609_4 SNIRLostPackets 18
scalar RSUExampleCatania.node[8].nic.mac1609_4 RXTXLostPackets 0
scalar RSUExampleCatania.node[8].nic.mac1609_4 TotalLostPackets 18
scalar RSUExampleCatania.node[8].nic.mac1609_4 DroppedPacketsInMac 0
scalar RSUExampleCatania.node[8].nic.mac1609_4 TooLittleTime 0
scalar RSUExampleCatania.node[8].nic.mac1609_4 TimesIntoBackoff 1
scalar RSUExampleCatania.node[8].nic.mac1609_4 SlotsBackoff 2
scalar RSUExampleCatania.node[8].nic.mac1609_4 NumInternalContention 0
scalar RSUExampleCatania.node[8].nic.mac1609_4 totalBusyTime 0.011137
scalar RSUExampleCatania.node[8].veinsmobility startTime 10
scalar RSUExampleCatania.node[8].veinsmobility totalTime 122
scalar RSUExampleCatania.node[8].veinsmobility stopTime 133
scalar RSUExampleCatania.node[8].veinsmobility minSpeed 1.0007703726543
scalar RSUExampleCatania.node[8].veinsmobility maxSpeed 15.998363009072
scalar RSUExampleCatania.node[8].veinsmobility totalDistance 1654.9728313015
scalar RSUExampleCatania.node[8].veinsmobility totalCO2Emission 414.12584516446
scalar RSUExampleCatania.node[11].appl generatedWSMs 1
scalar RSUExampleCatania.node[11].appl receivedWSMs 32
scalar RSUExampleCatania.node[11].appl generatedBSMs 0
scalar RSUExampleCatania.node[11].appl receivedBSMs 0
scalar RSUExampleCatania.node[11].appl generatedWSAs 0
scalar RSUExampleCatania.node[11].appl receivedWSAs 0
scalar RSUExampleCatania.node[11].nic.phy80211p busyTime 8.9377049180328e-05
scalar RSUExampleCatania.node[11].nic.mac1609_4 ReceivedUnicastPackets 0
scalar RSUExampleCatania.node[11].nic.mac1609_4 ReceivedBroadcasts 32
scalar RSUExampleCatania.node[11].nic.mac1609_4 SentPackets 1
scalar RSUExampleCatania.node[11].nic.mac1609_4 SentAcknowledgements 0
scalar RSUExampleCatania.node[11].nic.mac1609_4 SNIRLostPackets 15
scalar RSUExampleCatania.node[11].nic.mac1609_4 RXTXLostPackets 0
scalar RSUExampleCatania.node[11].nic.mac1609_4 TotalLostPackets 15
scalar RSUExampleCatania.node[11].nic.mac1609_4 DroppedPacketsInMac 0
scalar RSUExampleCatania.node[11].nic.mac1609_4 TooLittleTime 0
scalar RSUExampleCatania.node[11].nic.mac1609_4 TimesIntoBackoff 1
scalar RSUExampleCatania.node[11].nic.mac1609_4 SlotsBackoff 0
scalar RSUExampleCatania.node[11].nic.mac1609_4 NumInternalContention 0
scalar RSUExampleCatania.node[11].nic.mac1609_4 totalBusyTime 0.010905
scalar RSUExampleCatania.node[11].veinsmobility startTime 13
scalar RSUExampleCatania.node[11].veinsmobility totalTime 121
scalar RSUExampleCatania.node[11].veinsmobility stopTime 135
scalar RSUExampleCatania.node[11].veinsmobility minSpeed 1.9304828760214
scalar RSUExampleCatania.node[11].veinsmobility maxSpeed 15.975267836521
scalar RSUExampleCatania.node[11].veinsmobility totalDistance 1658.7886517934
scalar RSUExampleCatania.node[11].veinsmobility totalCO2Emission 391.94183810504
scalar RSUExampleCatania.node[12].appl generatedWSMs 1
scalar RSUExampleCatania.node[12].appl receivedWSMs 35
scalar RSUExampleCatania.node[12].appl generatedBSMs 0
scalar RSUExampleCatania.node[12].appl receivedBSMs 0
scalar RSUExampleCatania.node[12].appl generatedWSAs 0
scalar RSUExampleCatania.node[12].appl receivedWSAs 0
scalar RSUExampleCatania.node[12].nic.phy80211p busyTime 8.9377049180328e-05
scalar RSUExampleCatania.node[12].nic.mac1609_4 ReceivedUnicastPackets 0
scalar RSUExampleCatania.node[12].nic.mac1609_4 ReceivedBroadcasts 35
scalar RSUExampleCatania.node[12].nic.mac1609_4 SentPackets 1
scalar RSUExampleCatania.node[12].nic.mac1609_4 SentAcknowledgements 0
scalar RSUExampleCatania.node[12].nic.mac1609_4 SNIRLostPackets 12
scalar RSUExampleCatania.node[12].nic.mac1609_4 RXTXLostPackets 0
scalar RSUExampleCatania.node[12].nic.mac1609_4 TotalLostPackets 12
scalar RSUExampleCatania.node[12].nic.mac1609_4 DroppedPacketsInMac 0
scalar RSUExampleCatania.node[12].nic.mac1609_4 TooLittleTime 0
scalar RSUExampleCatania.node[12].nic.mac1609_4 TimesIntoBackoff 1
scalar RSUExampleCatania.node[12].nic.mac1609_4 SlotsBackoff 2
scalar RSUExampleCatania.node[12].nic.mac1609_4 NumInternalContention 0
scalar RSUExampleCatania.node[12].nic.mac1609_4 totalBusyTime 0.010905
scalar RSUExampleCatania.node[12].veinsmobility startTime 15
scalar RSUExampleCatania.node[12].veinsmobility totalTime 121
scalar RSUExampleCatania.node[12].veinsmobility stopTime 137
scalar RSUExampleCatania.node[12].veinsmobility minSpeed 0.48542966133155
scalar RSUExampleCatania.node[12].veinsmobility maxSpeed 15.970107708895
scalar RSUExampleCatania.node[12].veinsmobility totalDistance 1656.9695976908
scalar RSUExampleCatania.node[12].veinsmobility totalCO2Emission 382.09656467519
scalar RSUExampleCatania.node[14].appl generatedWSMs 1
scalar RSUExampleCatania.node[14].appl receivedWSMs 38
scalar RSUExampleCatania.node[14].appl generatedBSMs 0
scalar RSUExampleCatania.node[14].appl receivedBSMs 0
scalar RSUExampleCatania.node[14].appl generatedWSAs 0
scalar RSUExampleCatania.node[14].appl receivedWSAs 0
scalar RSUExampleCatania.node[14].nic.phy80211p busyTime 8.9377049180328e-05
scalar RSUExampleCatania.node[14].nic.mac1609_4 ReceivedUnicastPackets 0
scalar RSUExampleCatania.node[14].nic.mac1609_4 ReceivedBroadcasts 38
scalar RSUExampleCatania.node[14].nic.mac1609_4 SentPackets 1
scalar RSUExampleCatania.node[14].nic.mac1609_4 SentAcknowledgements 0
scalar RSUExampleCatania.node[14].nic.mac1609_4 SNIRLostPackets 9
scalar RSUExampleCatania.node[14].nic.mac1609_4 RXTXLostPackets 0
scalar RSUExampleCatania.node[14].nic.mac1609_4 TotalLostPackets 9
scalar RSUExampleCatania.node[14].nic.mac1609_4 DroppedPacketsInMac 0
scalar RSUExampleCatania.node[14].nic.mac1609_4 TooLittleTime 0
scalar RSUExampleCatania.node[14].nic.mac1609_4 TimesIntoBackoff 1
scalar RSUExampleCatania.node[14].nic.mac1609_4 SlotsBackoff 3
scalar RSUExampleCatania.node[14].nic.mac1609_4 NumInternalContention 0
scalar RSUExampleCatania.node[14].nic.mac1609_4 totalBusyTime 0.010905
scalar RSUExampleCatania.node[14].veinsmobility startTime 18
scalar RSUExampleCatania.node[14].veinsmobility totalTime 121
scalar RSUExampleCatania.node[14].veinsmobility stopTime 140
scalar RSUExampleCatania.node[14].veinsmobility minSpeed 2.1649090897059
scalar RSUExampleCatania.node[14].veinsmobility maxSpeed 15.932916935813
scalar RSUExampleCatania.node[14].veinsmobility totalDistance 1665.2600723154
scalar RSUExampleCatania.node[14].veinsmobility totalCO2Emission 380.92649213512
scalar RSUExampleCatania.node[16].appl generatedWSMs 1
scalar RSUExampleCatania.node[16].appl receivedWSMs 39
scalar RSUExampleCatania.node[16].appl generatedBSMs 0
scalar RSUExampleCatania.node[16].appl receivedBSMs 0
scalar RSUExampleCatania.node[16].appl generatedWSAs 0
scalar RSUExampleCatania.node[16].appl receivedWSAs 0
scalar RSUExampleCatania.node[16].nic.phy80211p busyTime 8.8650406504065e-05
scalar RSUExampleCatania.node[16].nic.mac1609_4 ReceivedUnicastPackets 0
scalar RSUExampleCatania.node[16].nic.mac1609_4 ReceivedBroadcasts 39
scalar RSUExampleCatania.node[16].nic.mac1609_4 SentPackets 1
scalar RSUExampleCatania.node[16].nic.mac1609_4 SentAcknowledgements 0
scalar RSUExampleCatania.node[16].nic.mac1609_4 SNIRLostPackets 8
scalar RSUExampleCatania.node[16].nic.mac1609_4 RXTXLostPackets 0
scalar RSUExampleCatania.node[16].nic.mac1609_4 TotalLostPackets 8
scalar RSUExampleCatania.node[16].nic.mac1609_4 DroppedPacketsInMac 0
scalar RSUExampleCatania.node[16].nic.mac1609_4 TooLittleTime 0
scalar RSUExampleCatania.node[16].nic.mac1609_4 TimesIntoBackoff 1
scalar RSUExampleCatania.node[16].nic.mac1609_4 SlotsBackoff 3
scalar RSUExampleCatania.node[16].nic.mac1609_4 NumInternalContention 0
scalar RSUExampleCatania.node[16].nic.mac1609_4 totalBusyTime 0.010905
scalar RSUExampleCatania.node[16].veinsmobility startTime 20
scalar RSUExampleCatania.node[16].veinsmobility totalTime 122
scalar RSUExampleCatania.node[16].veinsmobility stopTime 143
scalar RSUExampleCatania.node[16].veinsmobility minSpeed 1.3038731631487
scalar RSUExampleCatania.node[16].veinsmobility maxSpeed 15.984675557772
scalar RSUExampleCatania.node[16].veinsmobility totalDistance 1657.8093979716
scalar RSUExampleCatania.node[16].veinsmobility totalCO2Emission 389.79224515554
scalar RSUExampleCatania.node[18].appl generatedWSMs 1
scalar RSUExampleCatania.node[18].appl receivedWSMs 42
scalar RSUExampleCatania.node[18].appl generatedBSMs 0
scalar RSUExampleCatania.node[18].appl receivedBSMs 0
scalar RSUExampleCatania.node[18].appl generatedWSAs 0
scalar RSUExampleCatania.node[18].appl receivedWSAs 0
scalar RSUExampleCatania.node[18].nic.phy80211p busyTime 8.7935483870968e-05
scalar RSUExampleCatania.node[18].nic.mac1609_4 ReceivedUnicastPackets 0
scalar RSUExampleCatania.node[18].nic.mac1609_4 ReceivedBroadcasts 42
scalar RSUExampleCatania.node[18].nic.mac1609_4 SentPackets 1
scalar RSUExampleCatania.node[18].nic.mac1609_4 SentAcknowledgements 0
scalar RSUExampleCatania.node[18].nic.mac1609_4 SNIRLostPackets 5
scalar RSUExampleCatania.node[18].nic.mac1609_4 RXTXLostPackets 0
scalar RSUExampleCatania.node[18].nic.mac1609_4 TotalLostPackets 5
scalar RSUExampleCatania.node[18].nic.mac1609_4 DroppedPacketsInMac 0
scalar RSUExampleCatania.node[18].nic.mac1609_4 TooLittleTime 0
scalar RSUExampleCatania.node[18].nic.mac1609_4 TimesIntoBackoff 1
scalar RSUExampleCatania.node[18].nic.mac1609_4 SlotsBackoff 3
scalar RSUExampleCatania.node[18].nic.mac1609_4 NumInternalContention 0
scalar RSUExampleCatania.node[18].nic.mac1609_4 totalBusyTime 0.010905
scalar RSUExampleCatania.node[18].veinsmobility startTime 22
scalar RSUExampleCatania.node[18].veinsmobility totalTime 123
scalar RSUExampleCatania.node[18].veinsmobility stopTime 146
scalar RSUExampleCatania.node[18].veinsmobility minSpeed 0.14607086781138
scalar RSUExampleCatania.node[18].veinsmobility maxSpeed 15.991427671164
scalar RSUExampleCatania.node[18].veinsmobility totalDistance 1665.9702139772
scalar RSUExampleCatania.node[18].veinsmobility totalCO2Emission 403.8801840686
scalar RSUExampleCatania.node[22].appl generatedWSMs 1
scalar RSUExampleCatania.node[22].appl receivedWSMs 43
scalar RSUExampleCatania.node[22].appl generatedBSMs 0
scalar RSUExampleCatania.node[22].appl receivedBSMs 0
scalar RSUExampleCatania.node[22].appl generatedWSAs 0
scalar RSUExampleCatania.node[22].appl receivedWSAs 0
scalar RSUExampleCatania.node[22].nic.phy80211p busyTime 8.4207407407407e-05
scalar RSUExampleCatania.node[22].nic.mac1609_4 ReceivedUnicastPackets 0
scalar RSUExampleCatania.node[22].nic.mac1609_4 ReceivedBroadcasts 43
scalar RSUExampleCatania.node[22].nic.mac1609_4 SentPackets 1
scalar RSUExampleCatania.node[22].nic.mac1609_4 SentAcknowledgements 0
scalar RSUExampleCatania.node[22].nic.mac1609_4 SNIRLostPackets 6
scalar RSUExampleCatania.node[22].nic.mac1609_4 RXTXLostPackets 0
scalar RSUExampleCatania.node[22].nic.mac1609_4 TotalLostPackets 6
scalar RSUExampleCatania.node[22].nic.mac1609_4 DroppedPacketsInMac 0
scalar RSUExampleCatania.node[22].nic.mac1609_4 TooLittleTime 0
scalar RSUExampleCatania.node[22].nic.mac1609_4 TimesIntoBackoff 2
scalar RSUExampleCatania.node[22].nic.mac1609_4 SlotsBackoff 2
scalar RSUExampleCatania.node[22].nic.mac1609_4 NumInternalContention 0
scalar RSUExampleCatania.node[22].nic.mac1609_4 totalBusyTime 0.011369
scalar RSUExampleCatania.node[22].veinsmobility startTime 28
scalar RSUExampleCatania.node[22].veinsmobility totalTime 134
scalar RSUExampleCatania.node[22].veinsmobility stopTime 163
scalar RSUExampleCatania.node[22].veinsmobility minSpeed 0
scalar RSUExampleCatania.node[22].veinsmobility maxSpeed 15.985184438247
scalar RSUExampleCatania.node[22].veinsmobility totalDistance 1657.4480949386
scalar RSUExampleCatania.node[22].veinsmobility totalCO2Emission 435.96620927061
scalar RSUExampleCatania.node[24].appl generatedWSMs 1
scalar RSUExampleCatania.node[24].appl receivedWSMs 43
scalar RSUExampleCatania.node[24].appl generatedBSMs 0
scalar RSUExampleCatania.node[24].appl receivedBSMs 0
scalar RSUExampleCatania.node[24].appl generatedWSAs 0
scalar RSUExampleCatania.node[24].appl receivedWSAs 0
scalar RSUExampleCatania.node[24].nic.phy80211p busyTime 8.1882352941176e-05
scalar RSUExampleCatania.node[24].nic.mac1609_4 ReceivedUnicastPackets 0
scalar RSUExampleCatania.node[24].nic.mac1609_4 ReceivedBroadcasts 43
scalar RSUExampleCatania.node[24].nic.mac1609_4 SentPackets 1
scalar RSUExampleCatania.node[24].nic.mac1609_4 SentAcknowledgements 0
scalar RSUExampleCatania.node[24].nic.mac1609_4 SNIRLostPackets 5
scalar RSUExampleCatania.node[24].nic.mac1609_4 RXTXLostPackets 0
scalar RSUExampleCatania.node[24].nic.mac1609_4 TotalLostPackets 5
scalar RSUExampleCatania.node[24].nic.mac1609_4 DroppedPacketsInMac 0
scalar RSUExampleCatania.node[24].nic.mac1609_4 TooLittleTime 0
scalar RSUExampleCatania.node[24].nic.mac1609_4 TimesIntoBackoff 1
scalar RSUExampleCatania.node[24].nic.mac1609_4 SlotsBackoff 0
scalar RSUExampleCatania.node[24].nic.mac1609_4 NumInternalContention 0
scalar RSUExampleCatania.node[24].nic.mac1609_4 totalBusyTime 0.011137001925
scalar RSUExampleCatania.node[24].veinsmobility startTime 31
scalar RSUExampleCatania.node[24].veinsmobility totalTime 135
scalar RSUExampleCatania.node[24].veinsmobility stopTime 167
scalar RSUExampleCatania.node[24].veinsmobility minSpeed 0
scalar RSUExampleCatania.node[24].veinsmobility maxSpeed 15.949406472943
scalar RSUExampleCatania.node[24].veinsmobility totalDistance 1663.8237914763
scalar RSUExampleCatania.node[24].veinsmobility totalCO2Emission 437.17111562857
scalar RSUExampleCatania.node[2].appl generatedWSMs 1
scalar RSUExampleCatania.node[2].appl receivedWSMs 45
scalar RSUExampleCatania.node[2].appl generatedBSMs 0
scalar RSUExampleCatania.node[2].appl receivedBSMs 0
scalar RSUExampleCatania.node[2].appl generatedWSAs 0
scalar RSUExampleCatania.node[2].appl receivedWSAs 0
scalar RSUExampleCatania.node[2].nic.phy80211p busyTime 6.6682634730539e-05
scalar RSUExampleCatania.node[2].nic.mac1609_4 ReceivedUnicastPackets 0
scalar RSUExampleCatania.node[2].nic.mac1609_4 ReceivedBroadcasts 45
scalar RSUExampleCatania.node[2].nic.mac1609_4 SentPackets 1
scalar RSUExampleCatania.node[2].nic.mac1609_4 SentAcknowledgements 0
scalar RSUExampleCatania.node[2].nic.mac1609_4 SNIRLostPackets 3
scalar RSUExampleCatania.node[2].nic.mac1609_4 RXTXLostPackets 1
scalar RSUExampleCatania.node[2].nic.mac1609_4 TotalLostPackets 4
scalar RSUExampleCatania.node[2].nic.mac1609_4 DroppedPacketsInMac 0
scalar RSUExampleCatania.node[2].nic.mac1609_4 TooLittleTime 0
scalar RSUExampleCatania.node[2].nic.mac1609_4 TimesIntoBackoff 1
scalar RSUExampleCatania.node[2].nic.mac1609_4 SlotsBackoff 0
scalar RSUExampleCatania.node[2].nic.mac1609_4 NumInternalContention 0
scalar RSUExampleCatania.node[2].nic.mac1609_4 totalBusyTime 0.011369000162
scalar RSUExampleCatania.node[2].veinsmobility startTime 3
scalar RSUExampleCatania.node[2].veinsmobility totalTime 166
scalar RSUExampleCatania.node[2].veinsmobility stopTime 170
scalar RSUExampleCatania.node[2].veinsmobility minSpeed 0
scalar RSUExampleCatania.node[2].veinsmobility maxSpeed 15.936158397445
scalar RSUExampleCatania.node[2].veinsmobility totalDistance 1970.4649280913
scalar RSUExampleCatania.node[2].veinsmobility totalCO2Emission 491.28078706724
scalar RSUExampleCatania.node[5].appl generatedWSMs 1
scalar RSUExampleCatania.node[5].appl receivedWSMs 43
scalar RSUExampleCatania.node[5].appl generatedBSMs 0
scalar RSUExampleCatania.node[5].appl receivedBSMs 0
scalar RSUExampleCatania.node[5].appl generatedWSAs 0
scalar RSUExampleCatania.node[5].appl receivedWSAs 0
scalar RSUExampleCatania.node[5].nic.phy80211p busyTime 6.9461077844311e-05
scalar RSUExampleCatania.node[5].nic.mac1609_4 ReceivedUnicastPackets 0
scalar RSUExampleCatania.node[5].nic.mac1609_4 ReceivedBroadcasts 43
scalar RSUExampleCatania.node[5].nic.mac1609_4 SentPackets 1
scalar RSUExampleCatania.node[5].nic.mac1609_4 SentAcknowledgements 0
scalar RSUExampleCatania.node[5].nic.mac1609_4 SNIRLostPackets 7
scalar RSUExampleCatania.node[5].nic.mac1609_4 RXTXLostPackets 0
scalar RSUExampleCatania.node[5].nic.mac1609_4 TotalLostPackets 7
scalar RSUExampleCatania.node[5].nic.mac1609_4 DroppedPacketsInMac 0
scalar RSUExampleCatania.node[5].nic.mac1609_4 TooLittleTime 0
scalar RSUExampleCatania.node[5].nic.mac1609_4 TimesIntoBackoff 1
scalar RSUExampleCatania.node[5].nic.mac1609_4 SlotsBackoff 2
scalar RSUExampleCatania.node[5].nic.mac1609_4 NumInternalContention 0
scalar RSUExampleCatania.node[5].nic.mac1609_4 totalBusyTime 0.011601033194
scalar RSUExampleCatania.node[5].veinsmobility startTime 6
scalar RSUExampleCatania.node[5].veinsmobility totalTime 166
scalar RSUExampleCatania.node[5].veinsmobility stopTime 173
scalar RSUExampleCatania.node[5].veinsmobility minSpeed 0
scalar RSUExampleCatania.node[5].veinsmobility maxSpeed 15.989536205796
scalar RSUExampleCatania.node[5].veinsmobility totalDistance 1963.711161453
scalar RSUExampleCatania.node[5].veinsmobility totalCO2Emission 503.48051605664
scalar RSUExampleCatania.node[6].appl generatedWSMs 1
scalar RSUExampleCatania.node[6].appl receivedWSMs 44
scalar RSUExampleCatania.node[6].appl generatedBSMs 0
scalar RSUExampleCatania.node[6].appl receivedBSMs 0
scalar RSUExampleCatania.node[6].appl generatedWSAs 0
scalar RSUExampleCatania.node[6].appl receivedWSAs 0
scalar RSUExampleCatania.node[6].nic.phy80211p busyTime 7.0428571428571e-05
scalar RSUExampleCatania.node[6].nic.mac1609_4 ReceivedUnicastPackets 0
scalar RSUExampleCatania.node[6].nic.mac1609_4 ReceivedBroadcasts 44
scalar RSUExampleCatania.node[6].nic.mac1609_4 SentPackets 1
scalar RSUExampleCatania.node[6].nic.mac1609_4 SentAcknowledgements 0
scalar RSUExampleCatania.node[6].nic.mac1609_4 SNIRLostPackets 7
scalar RSUExampleCatania.node[6].nic.mac1609_4 RXTXLostPackets 0
scalar RSUExampleCatania.node[6].nic.mac1609_4 TotalLostPackets 7
scalar RSUExampleCatania.node[6].nic.mac1609_4 DroppedPacketsInMac 0
scalar RSUExampleCatania.node[6].nic.mac1609_4 TooLittleTime 0
scalar RSUExampleCatania.node[6].nic.mac1609_4 TimesIntoBackoff 1
scalar RSUExampleCatania.node[6].nic.mac1609_4 SlotsBackoff 2
scalar RSUExampleCatania.node[6].nic.mac1609_4 NumInternalContention 0
scalar RSUExampleCatania.node[6].nic.mac1609_4 totalBusyTime 0.011833066552
scalar RSUExampleCatania.node[6].veinsmobility startTime 8
scalar RSUExampleCatania.node[6].veinsmobility totalTime 167
scalar RSUExampleCatania.node[6].veinsmobility stopTime 176
scalar RSUExampleCatania.node[6].veinsmobility minSpeed 0
scalar RSUExampleCatania.node[6].veinsmobility maxSpeed 15.976225235849
scalar RSUExampleCatania.node[6].veinsmobility totalDistance 1960.851609703
scalar RSUExampleCatania.node[6].veinsmobility totalCO2Emission 508.68915238165
scalar RSUExampleCatania.node[9].appl generatedWSMs 1
scalar RSUExampleCatania.node[9].appl receivedWSMs 44
scalar RSUExampleCatania.node[9].appl generatedBSMs 0
scalar RSUExampleCatania.node[9].appl receivedBSMs 0
scalar RSUExampleCatania.node[9].appl generatedWSAs 0
scalar RSUExampleCatania.node[9].appl receivedWSAs 0
scalar RSUExampleCatania.node[9].nic.phy80211p busyTime 7.1384615384615e-05
scalar RSUExampleCatania.node[9].nic.mac1609_4 ReceivedUnicastPackets 0
scalar RSUExampleCatania.node[9].nic.mac1609_4 ReceivedBroadcasts 44
scalar RSUExampleCatania.node[9].nic.mac1609_4 SentPackets 1
scalar RSUExampleCatania.node[9].nic.mac1609_4 SentAcknowledgements 0
scalar RSUExampleCatania.node[9].nic.mac1609_4 SNIRLostPackets 8
scalar RSUExampleCatania.node[9].nic.mac1609_4 RXTXLostPackets 1
scalar RSUExampleCatania.node[9].nic.mac1609_4 TotalLostPackets 9
scalar RSUExampleCatania.node[9].nic.mac1609_4 DroppedPacketsInMac 0
scalar RSUExampleCatania.node[9].nic.mac1609_4 TooLittleTime 0
scalar RSUExampleCatania.node[9].nic.mac1609_4 TimesIntoBackoff 1
scalar RSUExampleCatania.node[9].nic.mac1609_4 SlotsBackoff 0
scalar RSUExampleCatania.node[9].nic.mac1609_4 NumInternalContention 0
scalar RSUExampleCatania.node[9].nic.mac1609_4 totalBusyTime 0.012297099978
scalar RSUExampleCatania.node[9].veinsmobility startTime 11
scalar RSUExampleCatania.node[9].veinsmobility totalTime 168
scalar RSUExampleCatania.node[9].veinsmobility stopTime 180
scalar RSUExampleCatania.node[9].veinsmobility minSpeed 0.00054940736082434
scalar RSUExampleCatania.node[9].veinsmobility maxSpeed 15.99033873626
scalar RSUExampleCatania.node[9].veinsmobility totalDistance 1963.6227375178
scalar RSUExampleCatania.node[9].veinsmobility totalCO2Emission 493.48918477604
scalar RSUExampleCatania.node[13].appl generatedWSMs 1
scalar RSUExampleCatania.node[13].appl receivedWSMs 45
scalar RSUExampleCatania.node[13].appl generatedBSMs 0
scalar RSUExampleCatania.node[13].appl receivedBSMs 0
scalar RSUExampleCatania.node[13].appl generatedWSAs 0
scalar RSUExampleCatania.node[13].appl receivedWSAs 0
scalar RSUExampleCatania.node[13].nic.phy80211p busyTime 7.2239520958084e-05
scalar RSUExampleCatania.node[13].nic.mac1609_4 ReceivedUnicastPackets 0
scalar RSUExampleCatania.node[13].nic.mac1609_4 ReceivedBroadcasts 45
scalar RSUExampleCatania.node[13].nic.mac1609_4 SentPackets 1
scalar RSUExampleCatania.node[13].nic.mac1609_4 SentAcknowledgements 0
scalar RSUExampleCatania.node[13].nic.mac1609_4 SNIRLostPackets 7
scalar RSUExampleCatania.node[13].nic.mac1609_4 RXTXLostPackets 0
scalar RSUExampleCatania.node[13].nic.mac1609_4 TotalLostPackets 7
scalar RSUExampleCatania.node[13].nic.mac1609_4 DroppedPacketsInMac 0
scalar RSUExampleCatania.node[13].nic.mac1609_4 TooLittleTime 0
scalar RSUExampleCatania.node[13].nic.mac1609_4 TimesIntoBackoff 1
scalar RSUExampleCatania.node[13].nic.mac1609_4 SlotsBackoff 0
scalar RSUExampleCatania.node[13].nic.mac1609_4 NumInternalContention 0
scalar RSUExampleCatania.node[13].nic.mac1609_4 totalBusyTime 0.012065099978
scalar RSUExampleCatania.node[13].veinsmobility startTime 16
scalar RSUExampleCatania.node[13].veinsmobility totalTime 166
scalar RSUExampleCatania.node[13].veinsmobility stopTime 183
scalar RSUExampleCatania.node[13].veinsmobility minSpeed 0.0042280003628275
scalar RSUExampleCatania.node[13].veinsmobility maxSpeed 15.99991745376
scalar RSUExampleCatania.node[13].veinsmobility totalDistance 1968.3583270212
scalar RSUExampleCatania.node[13].veinsmobility totalCO2Emission 493.55380867124
scalar RSUExampleCatania.node[15].appl generatedWSMs 1
scalar RSUExampleCatania.node[15].appl receivedWSMs 45
scalar RSUExampleCatania.node[15].appl generatedBSMs 0
scalar RSUExampleCatania.node[15].appl receivedBSMs 0
scalar RSUExampleCatania.node[15].appl generatedWSAs 0
scalar RSUExampleCatania.node[15].appl receivedWSAs 0
scalar RSUExampleCatania.node[15].nic.phy80211p busyTime 7.0428571428571e-05
scalar RSUExampleCatania.node[15].nic.mac1609_4 ReceivedUnicastPackets 0
scalar RSUExampleCatania.node[15].nic.mac1609_4 ReceivedBroadcasts 45
scalar RSUExampleCatania.node[15].nic.mac1609_4 SentPackets 1
scalar RSUExampleCatania.node[15].nic.mac1609_4 SentAcknowledgements 0
scalar RSUExampleCatania.node[15].nic.mac1609_4 SNIRLostPackets 6
scalar RSUExampleCatania.node[15].nic.mac1609_4 RXTXLostPackets 0
scalar RSUExampleCatania.node[15].nic.mac1609_4 TotalLostPackets 6
scalar RSUExampleCatania.node[15].nic.mac1609_4 DroppedPacketsInMac 0
scalar RSUExampleCatania.node[15].nic.mac1609_4 TooLittleTime 0
scalar RSUExampleCatania.node[15].nic.mac1609_4 TimesIntoBackoff 1
scalar RSUExampleCatania.node[15].nic.mac1609_4 SlotsBackoff 2
scalar RSUExampleCatania.node[15].nic.mac1609_4 NumInternalContention 0
scalar RSUExampleCatania.node[15].nic.mac1609_4 totalBusyTime 0.011833
scalar RSUExampleCatania.node[15].veinsmobility startTime 19
scalar RSUExampleCatania.node[15].veinsmobility totalTime 167
scalar RSUExampleCatania.node[15].veinsmobility stopTime 187
scalar RSUExampleCatania.node[15].veinsmobility minSpeed 0.48888584620672
scalar RSUExampleCatania.node[15].veinsmobility maxSpeed 15.986165218987
scalar RSUExampleCatania.node[15].veinsmobility totalDistance 1964.6045516144
scalar RSUExampleCatania.node[15].veinsmobility totalCO2Emission 518.01836062615
scalar RSUExampleCatania.node[17].appl generatedWSMs 1
scalar RSUExampleCatania.node[17].appl receivedWSMs 44
scalar RSUExampleCatania.node[17].appl generatedBSMs 0
scalar RSUExampleCatania.node[17].appl receivedBSMs 0
scalar RSUExampleCatania.node[17].appl generatedWSAs 0
scalar RSUExampleCatania.node[17].appl receivedWSAs 0
scalar RSUExampleCatania.node[17].nic.phy80211p busyTime 7.2239520958084e-05
scalar RSUExampleCatania.node[17].nic.mac1609_4 ReceivedUnicastPackets 0
scalar RSUExampleCatania.node[17].nic.mac1609_4 ReceivedBroadcasts 44
scalar RSUExampleCatania.node[17].nic.mac1609_4 SentPackets 1
scalar RSUExampleCatania.node[17].nic.mac1609_4 SentAcknowledgements 0
scalar RSUExampleCatania.node[17].nic.mac1609_4 SNIRLostPackets 8
scalar RSUExampleCatania.node[17].nic.mac1609_4 RXTXLostPackets 0
scalar RSUExampleCatania.node[17].nic.mac1609_4 TotalLostPackets 8
scalar RSUExampleCatania.node[17].nic.mac1609_4 DroppedPacketsInMac 0
scalar RSUExampleCatania.node[17].nic.mac1609_4 TooLittleTime 0
scalar RSUExampleCatania.node[17].nic.mac1609_4 TimesIntoBackoff 1
scalar RSUExampleCatania.node[17].nic.mac1609_4 SlotsBackoff 3
scalar RSUExampleCatania.node[17].nic.mac1609_4 NumInternalContention 0
scalar RSUExampleCatania.node[17].nic.mac1609_4 totalBusyTime 0.012065
scalar RSUExampleCatania.node[17].veinsmobility startTime 22
scalar RSUExampleCatania.node[17].veinsmobility totalTime 166
scalar RSUExampleCatania.node[17].veinsmobility stopTime 189
scalar RSUExampleCatania.node[17].veinsmobility minSpeed 0.39559154469716
scalar RSUExampleCatania.node[17].veinsmobility maxSpeed 15.974619627069
scalar RSUExampleCatania.node[17].veinsmobility totalDistance 1969.993100011
scalar RSUExampleCatania.node[17].veinsmobility totalCO2Emission 499.2318574455
scalar RSUExampleCatania.node[21].appl generatedWSMs 1
scalar RSUExampleCatania.node[21].appl receivedWSMs 42
scalar RSUExampleCatania.node[21].appl generatedBSMs 0
scalar RSUExampleCatania.node[21].appl receivedBSMs 0
scalar RSUExampleCatania.node[21].appl generatedWSAs 0
scalar RSUExampleCatania.node[21].appl receivedWSAs 0
scalar RSUExampleCatania.node[21].nic.phy80211p busyTime 7.6390243902439e-05
scalar RSUExampleCatania.node[21].nic.mac1609_4 ReceivedUnicastPackets 0
scalar RSUExampleCatania.node[21].nic.mac1609_4 ReceivedBroadcasts 42
scalar RSUExampleCatania.node[21].nic.mac1609_4 SentPackets 1
scalar RSUExampleCatania.node[21].nic.mac1609_4 SentAcknowledgements 0
scalar RSUExampleCatania.node[21].nic.mac1609_4 SNIRLostPackets 12
scalar RSUExampleCatania.node[21].nic.mac1609_4 RXTXLostPackets 0
scalar RSUExampleCatania.node[21].nic.mac1609_4 TotalLostPackets 12
scalar RSUExampleCatania.node[21].nic.mac1609_4 DroppedPacketsInMac 0
scalar RSUExampleCatania.node[21].nic.mac1609_4 TooLittleTime 0
scalar RSUExampleCatania.node[21].nic.mac1609_4 TimesIntoBackoff 1
scalar RSUExampleCatania.node[21].nic.mac1609_4 SlotsBackoff 1
scalar RSUExampleCatania.node[21].nic.mac1609_4 NumInternalContention 0
scalar RSUExampleCatania.node[21].nic.mac1609_4 totalBusyTime 0.012529
scalar RSUExampleCatania.node[21].veinsmobility startTime 27
scalar RSUExampleCatania.node[21].veinsmobility totalTime 163
scalar RSUExampleCatania.node[21].veinsmobility stopTime 191
scalar RSUExampleCatania.node[21].veinsmobility minSpeed 0.24856131462417
scalar RSUExampleCatania.node[21].veinsmobility maxSpeed 15.995928650186
scalar RSUExampleCatania.node[21].veinsmobility totalDistance 1966.7564044392
scalar RSUExampleCatania.node[21].veinsmobility totalCO2Emission 485.26936913004
scalar RSUExampleCatania.node[0].appl generatedWSMs 1
scalar RSUExampleCatania.node[0].appl receivedWSMs 45
scalar RSUExampleCatania.node[0].appl generatedBSMs 0
scalar RSUExampleCatania.node[0].appl receivedBSMs 0
scalar RSUExampleCatania.node[0].appl generatedWSAs 0
scalar RSUExampleCatania.node[0].appl receivedWSAs 0
scalar RSUExampleCatania.node[0].nic.phy80211p busyTime 6.0732984293194e-05
scalar RSUExampleCatania.node[0].nic.mac1609_4 ReceivedUnicastPackets 0
scalar RSUExampleCatania.node[0].nic.mac1609_4 ReceivedBroadcasts 45
scalar RSUExampleCatania.node[0].nic.mac1609_4 SentPackets 1
scalar RSUExampleCatania.node[0].nic.mac1609_4 SentAcknowledgements 0
scalar RSUExampleCatania.node[0].nic.mac1609_4 SNIRLostPackets 5
scalar RSUExampleCatania.node[0].nic.mac1609_4 RXTXLostPackets 0
scalar RSUExampleCatania.node[0].nic.mac1609_4 TotalLostPackets 5
scalar RSUExampleCatania.node[0].nic.mac1609_4 DroppedPacketsInMac 0
scalar RSUExampleCatania.node[0].nic.mac1609_4 TooLittleTime 0
scalar RSUExampleCatania.node[0].nic.mac1609_4 TimesIntoBackoff 1
scalar RSUExampleCatania.node[0].nic.mac1609_4 SlotsBackoff 1
scalar RSUExampleCatania.node[0].nic.mac1609_4 NumInternalContention 0
scalar RSUExampleCatania.node[0].nic.mac1609_4 totalBusyTime 0.011601000162
scalar RSUExampleCatania.node[0].veinsmobility startTime 1
scalar RSUExampleCatania.node[0].veinsmobility totalTime 190
scalar RSUExampleCatania.node[0].veinsmobility stopTime 192
scalar RSUExampleCatania.node[0].veinsmobility minSpeed 0
scalar RSUExampleCatania.node[0].veinsmobility maxSpeed 15.973970669392
scalar RSUExampleCatania.node[0].veinsmobility totalDistance 1951.0383248167
scalar RSUExampleCatania.node[0].veinsmobility totalCO2Emission 483.62595506523
scalar RSUExampleCatania.node[48].appl generatedWSMs 1
scalar RSUExampleCatania.node[48].appl receivedWSMs 44
scalar RSUExampleCatania.node[48].appl generatedBSMs 0
scalar RSUExampleCatania.node[48].appl receivedBSMs 0
scalar RSUExampleCatania.node[48].appl generatedWSAs 0
scalar RSUExampleCatania.node[48].appl receivedWSAs 0
scalar RSUExampleCatania.node[48].nic.phy80211p busyTime 9.593984962406e-05
scalar RSUExampleCatania.node[48].nic.mac1609_4 ReceivedUnicastPackets 0
scalar RSUExampleCatania.node[48].nic.mac1609_4 ReceivedBroadcasts 44
scalar RSUExampleCatania.node[48].nic.mac1609_4 SentPackets 1
scalar RSUExampleCatania.node[48].nic.mac1609_4 SentAcknowledgements 0
scalar RSUExampleCatania.node[48].nic.mac1609_4 SNIRLostPackets 11
scalar RSUExampleCatania.node[48].nic.mac1609_4 RXTXLostPackets 0
scalar RSUExampleCatania.node[48].nic.mac1609_4 TotalLostPackets 11
scalar RSUExampleCatania.node[48].nic.mac1609_4 DroppedPacketsInMac 0
scalar RSUExampleCatania.node[48].nic.mac1609_4 TooLittleTime 0
scalar RSUExampleCatania.node[48].nic.mac1609_4 TimesIntoBackoff 1
scalar RSUExampleCatania.node[48].nic.mac1609_4 SlotsBackoff 2
scalar RSUExampleCatania.node[48].nic.mac1609_4 NumInternalContention 0
scalar RSUExampleCatania.node[48].nic.mac1609_4 totalBusyTime 0.012761
scalar RSUExampleCatania.node[48].veinsmobility startTime 61
scalar RSUExampleCatania.node[48].veinsmobility totalTime 132
scalar RSUExampleCatania.node[48].veinsmobility stopTime 194
scalar RSUExampleCatania.node[48].veinsmobility minSpeed 2.2875595993362
scalar RSUExampleCatania.node[48].veinsmobility maxSpeed 15.918453916768
scalar RSUExampleCatania.node[48].veinsmobility totalDistance 1870.1310910887
scalar RSUExampleCatania.node[48].veinsmobility totalCO2Emission 393.39674570831
scalar RSUExampleCatania.node[19].appl generatedWSMs 1
scalar RSUExampleCatania.node[19].appl receivedWSMs 44
scalar RSUExampleCatania.node[19].appl generatedBSMs 0
scalar RSUExampleCatania.node[19].appl receivedBSMs 0
scalar RSUExampleCatania.node[19].appl generatedWSAs 0
scalar RSUExampleCatania.node[19].appl receivedWSAs 0
scalar RSUExampleCatania.node[19].nic.phy80211p busyTime 7.0549707602339e-05
scalar RSUExampleCatania.node[19].nic.mac1609_4 ReceivedUnicastPackets 0
scalar RSUExampleCatania.node[19].nic.mac1609_4 ReceivedBroadcasts 44
scalar RSUExampleCatania.node[19].nic.mac1609_4 SentPackets 1
scalar RSUExampleCatania.node[19].nic.mac1609_4 SentAcknowledgements 0
scalar RSUExampleCatania.node[19].nic.mac1609_4 SNIRLostPackets 8
scalar RSUExampleCatania.node[19].nic.mac1609_4 RXTXLostPackets 0
scalar RSUExampleCatania.node[19].nic.mac1609_4 TotalLostPackets 8
scalar RSUExampleCatania.node[19].nic.mac1609_4 DroppedPacketsInMac 0
scalar RSUExampleCatania.node[19].nic.mac1609_4 TooLittleTime 0
scalar RSUExampleCatania.node[19].nic.mac1609_4 TimesIntoBackoff 2
scalar RSUExampleCatania.node[19].nic.mac1609_4 SlotsBackoff 2
scalar RSUExampleCatania.node[19].nic.mac1609_4 NumInternalContention 0
scalar RSUExampleCatania.node[19].nic.mac1609_4 totalBusyTime 0.012065
scalar RSUExampleCatania.node[19].veinsmobility startTime 24
scalar RSUExampleCatania.node[19].veinsmobility totalTime 170
scalar RSUExampleCatania.node[19].veinsmobility stopTime 195
scalar RSUExampleCatania.node[19].veinsmobility minSpeed 0.031038855468425
scalar RSUExampleCatania.node[19].veinsmobility maxSpeed 15.996268577804
scalar RSUExampleCatania.node[19].veinsmobility totalDistance 1966.3114203153
scalar RSUExampleCatania.node[19].veinsmobility totalCO2Emission 487.8944309803
scalar RSUExampleCatania.node[49].appl generatedWSMs 1
scalar RSUExampleCatania.node[49].appl receivedWSMs 13
scalar RSUExampleCatania.node[49].appl generatedBSMs 0
scalar RSUExampleCatania.node[49].appl receivedBSMs 0
scalar RSUExampleCatania.node[49].appl generatedWSAs 0
scalar RSUExampleCatania.node[49].appl receivedWSAs 0
scalar RSUExampleCatania.node[49].nic.phy80211p busyTime 3.4887218045113e-05
scalar RSUExampleCatania.node[49].nic.mac1609_4 ReceivedUnicastPackets 0
scalar RSUExampleCatania.node[49].nic.mac1609_4 ReceivedBroadcasts 13
scalar RSUExampleCatania.node[49].nic.mac1609_4 SentPackets 1
scalar RSUExampleCatania.node[49].nic.mac1609_4 SentAcknowledgements 0
scalar RSUExampleCatania.node[49].nic.mac1609_4 SNIRLostPackets 7
scalar RSUExampleCatania.node[49].nic.mac1609_4 RXTXLostPackets 0
scalar RSUExampleCatania.node[49].nic.mac1609_4 TotalLostPackets 7
scalar RSUExampleCatania.node[49].nic.mac1609_4 DroppedPacketsInMac 0
scalar RSUExampleCatania.node[49].nic.mac1609_4 TooLittleTime 0
scalar RSUExampleCatania.node[49].nic.mac1609_4 TimesIntoBackoff 1
scalar RSUExampleCatania.node[49].nic.mac1609_4 SlotsBackoff 0
scalar RSUExampleCatania.node[49].nic.mac1609_4 NumInternalContention 0
scalar RSUExampleCatania.node[49].nic.mac1609_4 totalBusyTime 0.004873
scalar RSUExampleCatania.node[49].veinsmobility startTime 63
scalar RSUExampleCatania.node[49].veinsmobility totalTime 132
scalar RSUExampleCatania.node[49].veinsmobility stopTime 196
scalar RSUExampleCatania.node[49].veinsmobility minSpeed 0.95490719327747
scalar RSUExampleCatania.node[49].veinsmobility maxSpeed 15.975212172791
scalar RSUExampleCatania.node[49].veinsmobility totalDistance 1876.0873645048
scalar RSUExampleCatania.node[49].veinsmobility totalCO2Emission 395.94310896147
scalar RSUExampleCatania.node[34].appl generatedWSMs 1
scalar RSUExampleCatania.node[34].appl receivedWSMs 44
scalar RSUExampleCatania.node[34].appl generatedBSMs 0
scalar RSUExampleCatania.node[34].appl receivedBSMs 0
scalar RSUExampleCatania.node[34].appl generatedWSAs 0
scalar RSUExampleCatania.node[34].appl receivedWSAs 0
scalar RSUExampleCatania.node[34].nic.phy80211p busyTime 7.9329032258064e-05
scalar RSUExampleCatania.node[34].nic.mac1609_4 ReceivedUnicastPackets 0
scalar RSUExampleCatania.node[34].nic.mac1609_4 ReceivedBroadcasts 44
scalar RSUExampleCatania.node[34].nic.mac1609_4 SentPackets 1
scalar RSUExampleCatania.node[34].nic.mac1609_4 SentAcknowledgements 0
scalar RSUExampleCatania.node[34].nic.mac1609_4 SNIRLostPackets 9
scalar RSUExampleCatania.node[34].nic.mac1609_4 RXTXLostPackets 0
scalar RSUExampleCatania.node[34].nic.mac1609_4 TotalLostPackets 9
scalar RSUExampleCatania.node[34].nic.mac1609_4 DroppedPacketsInMac 0
scalar RSUExampleCatania.node[34].nic.mac1609_4 TooLittleTime 0
scalar RSUExampleCatania.node[34].nic.mac1609_4 TimesIntoBackoff 1
scalar RSUExampleCatania.node[34].nic.mac1609_4 SlotsBackoff 3
scalar RSUExampleCatania.node[34].nic.mac1609_4 NumInternalContention 0
scalar RSUExampleCatania.node[34].nic.mac1609_4 totalBusyTime 0.012297
scalar RSUExampleCatania.node[34].veinsmobility startTime 43
scalar RSUExampleCatania.node[34].veinsmobility totalTime 154
scalar RSUExampleCatania.node[34].veinsmobility stopTime 198
scalar RSUExampleCatania.node[34].veinsmobility minSpeed 0.48553553048184
scalar RSUExampleCatania.node[34].veinsmobility maxSpeed 15.993478924851
scalar RSUExampleCatania.node[34].veinsmobility totalDistance 1663.5875678789
scalar RSUExampleCatania.node[34].veinsmobility totalCO2Emission 472.05204327153
scalar RSUExampleCatania.node[20].appl generatedWSMs 1
scalar RSUExampleCatania.node[20].appl receivedWSMs 42
scalar RSUExampleCatania.node[20].appl generatedBSMs 0
scalar RSUExampleCatania.node[20].appl receivedBSMs 0
scalar RSUExampleCatania.node[20].appl generatedWSAs 0
scalar RSUExampleCatania.node[20].appl receivedWSAs 0
scalar RSUExampleCatania.node[20].nic.phy80211p busyTime 6.3634285714286e-05
scalar RSUExampleCatania.node[20].nic.mac1609_4 ReceivedUnicastPackets 0
scalar RSUExampleCatania.node[20].nic.mac1609_4 ReceivedBroadcasts 42
scalar RSUExampleCatania.node[20].nic.mac1609_4 SentPackets 1
scalar RSUExampleCatania.node[20].nic.mac1609_4 SentAcknowledgements 0
scalar RSUExampleCatania.node[20].nic.mac1609_4 SNIRLostPackets 6
scalar RSUExampleCatania.node[20].nic.mac1609_4 RXTXLostPackets 0
scalar RSUExampleCatania.node[20].nic.mac1609_4 TotalLostPackets 6
scalar RSUExampleCatania.node[20].nic.mac1609_4 DroppedPacketsInMac 0
scalar RSUExampleCatania.node[20].nic.mac1609_4 TooLittleTime 0
scalar RSUExampleCatania.node[20].nic.mac1609_4 TimesIntoBackoff 1
scalar RSUExampleCatania.node[20].nic.mac1609_4 SlotsBackoff 1
scalar RSUExampleCatania.node[20].nic.mac1609_4 NumInternalContention 0
scalar RSUExampleCatania.node[20].nic.mac1609_4 totalBusyTime 0.011137
scalar RSUExampleCatania.node[20].veinsmobility startTime 25
scalar RSUExampleCatania.node[20].veinsmobility totalTime 174
scalar RSUExampleCatania.node[20].veinsmobility stopTime 200
scalar RSUExampleCatania.node[20].veinsmobility minSpeed 0
scalar RSUExampleCatania.node[20].veinsmobility maxSpeed 15.964204909373
scalar RSUExampleCatania.node[20].veinsmobility totalDistance 1659.2800342259
scalar RSUExampleCatania.node[20].veinsmobility totalCO2Emission 477.52099258407
scalar RSUExampleCatania.node[51].appl generatedWSMs 1
scalar RSUExampleCatania.node[51].appl receivedWSMs 13
scalar RSUExampleCatania.node[51].appl generatedBSMs 0
scalar RSUExampleCatania.node[51].appl receivedBSMs 0
scalar RSUExampleCatania.node[51].appl generatedWSAs 0
scalar RSUExampleCatania.node[51].appl receivedWSAs 0
scalar RSUExampleCatania.node[51].nic.phy80211p busyTime 4.155223880597e-05
scalar RSUExampleCatania.node[51].nic.mac1609_4 ReceivedUnicastPackets 0
scalar RSUExampleCatania.node[51].nic.mac1609_4 ReceivedBroadcasts 13
scalar RSUExampleCatania.node[51].nic.mac1609_4 SentPackets 1
scalar RSUExampleCatania.node[51].nic.mac1609_4 SentAcknowledgements 0
scalar RSUExampleCatania.node[51].nic.mac1609_4 SNIRLostPackets 11
scalar RSUExampleCatania.node[51].nic.mac1609_4 RXTXLostPackets 0
scalar RSUExampleCatania.node[51].nic.mac1609_4 TotalLostPackets 11
scalar RSUExampleCatania.node[51].nic.mac1609_4 DroppedPacketsInMac 0
scalar RSUExampleCatania.node[51].nic.mac1609_4 TooLittleTime 0
scalar RSUExampleCatania.node[51].nic.mac1609_4 TimesIntoBackoff 1
scalar RSUExampleCatania.node[51].nic.mac1609_4 SlotsBackoff 0
scalar RSUExampleCatania.node[51].nic.mac1609_4 NumInternalContention 0
scalar RSUExampleCatania.node[51].nic.mac1609_4 totalBusyTime 0.005801
scalar RSUExampleCatania.node[51].veinsmobility startTime 66
scalar RSUExampleCatania.node[51].veinsmobility totalTime 133
scalar RSUExampleCatania.node[51].veinsmobility stopTime 200
scalar RSUExampleCatania.node[51].veinsmobility minSpeed 1.307172364369
scalar RSUExampleCatania.node[51].veinsmobility maxSpeed 15.994067000295
scalar RSUExampleCatania.node[51].veinsmobility totalDistance 1873.1102340155
scalar RSUExampleCatania.node[51].veinsmobility totalCO2Emission 407.61528615204
scalar RSUExampleCatania.node[31].appl generatedWSMs 1
scalar RSUExampleCatania.node[31].appl receivedWSMs 46
scalar RSUExampleCatania.node[31].appl generatedBSMs 0
scalar RSUExampleCatania.node[31].appl receivedBSMs 0
scalar RSUExampleCatania.node[31].appl generatedWSAs 0
scalar RSUExampleCatania.node[31].appl receivedWSAs 0
scalar RSUExampleCatania.node[31].nic.phy80211p busyTime 7.4469135802469e-05
scalar RSUExampleCatania.node[31].nic.mac1609_4 ReceivedUnicastPackets 0
scalar RSUExampleCatania.node[31].nic.mac1609_4 ReceivedBroadcasts 46
scalar RSUExampleCatania.node[31].nic.mac1609_4 SentPackets 1
scalar RSUExampleCatania.node[31].nic.mac1609_4 SentAcknowledgements 0
scalar RSUExampleCatania.node[31].nic.mac1609_4 SNIRLostPackets 6
scalar RSUExampleCatania.node[31].nic.mac1609_4 RXTXLostPackets 0
scalar RSUExampleCatania.node[31].nic.mac1609_4 TotalLostPackets 6
scalar RSUExampleCatania.node[31].nic.mac1609_4 DroppedPacketsInMac 0
scalar RSUExampleCatania.node[31].nic.mac1609_4 TooLittleTime 0
scalar RSUExampleCatania.node[31].nic.mac1609_4 TimesIntoBackoff 1
scalar RSUExampleCatania.node[31].nic.mac1609_4 SlotsBackoff 0
scalar RSUExampleCatania.node[31].nic.mac1609_4 NumInternalContention 0
scalar RSUExampleCatania.node[31].nic.mac1609_4 totalBusyTime 0.012065
scalar RSUExampleCatania.node[31].veinsmobility startTime 40
scalar RSUExampleCatania.node[31].veinsmobility totalTime 161
scalar RSUExampleCatania.node[31].veinsmobility stopTime 202
scalar RSUExampleCatania.node[31].veinsmobility minSpeed 0
scalar RSUExampleCatania.node[31].veinsmobility maxSpeed 15.970681228163
scalar RSUExampleCatania.node[31].veinsmobility totalDistance 1660.7232088419
scalar RSUExampleCatania.node[31].veinsmobility totalCO2Emission 474.72260834291
scalar RSUExampleCatania.node[53].appl generatedWSMs 1
scalar RSUExampleCatania.node[53].appl receivedWSMs 12
scalar RSUExampleCatania.node[53].appl generatedBSMs 0
scalar RSUExampleCatania.node[53].appl receivedBSMs 0
scalar RSUExampleCatania.node[53].appl generatedWSAs 0
scalar RSUExampleCatania.node[53].appl receivedWSAs 0
scalar RSUExampleCatania.node[53].nic.phy80211p busyTime 4.012030075188e-05
scalar RSUExampleCatania.node[53].nic.mac1609_4 ReceivedUnicastPackets 0
scalar RSUExampleCatania.node[53].nic.mac1609_4 ReceivedBroadcasts 12
scalar RSUExampleCatania.node[53].nic.mac1609_4 SentPackets 1
scalar RSUExampleCatania.node[53].nic.mac1609_4 SentAcknowledgements 0
scalar RSUExampleCatania.node[53].nic.mac1609_4 SNIRLostPackets 11
scalar RSUExampleCatania.node[53].nic.mac1609_4 RXTXLostPackets 0
scalar RSUExampleCatania.node[53].nic.mac1609_4 TotalLostPackets 11
scalar RSUExampleCatania.node[53].nic.mac1609_4 DroppedPacketsInMac 0
scalar RSUExampleCatania.node[53].nic.mac1609_4 TooLittleTime 0
scalar RSUExampleCatania.node[53].nic.mac1609_4 TimesIntoBackoff 1
scalar RSUExampleCatania.node[53].nic.mac1609_4 SlotsBackoff 3
scalar RSUExampleCatania.node[53].nic.mac1609_4 NumInternalContention 0
scalar RSUExampleCatania.node[53].nic.mac1609_4 totalBusyTime 0.005569
scalar RSUExampleCatania.node[53].veinsmobility startTime 69
scalar RSUExampleCatania.node[53].veinsmobility totalTime 132
scalar RSUExampleCatania.node[53].veinsmobility stopTime 202
scalar RSUExampleCatania.node[53].veinsmobility minSpeed 2.4144553916296
scalar RSUExampleCatania.node[53].veinsmobility maxSpeed 15.981251768768
scalar RSUExampleCatania.node[53].veinsmobility totalDistance 1874.0347761512
scalar RSUExampleCatania.node[53].veinsmobility totalCO2Emission 385.060977796
scalar RSUExampleCatania.node[36].appl generatedWSMs 1
scalar RSUExampleCatania.node[36].appl receivedWSMs 44
scalar RSUExampleCatania.node[36].appl generatedBSMs 0
scalar RSUExampleCatania.node[36].appl receivedBSMs 0
scalar RSUExampleCatania.node[36].appl generatedWSAs 0
scalar RSUExampleCatania.node[36].appl receivedWSAs 0
scalar RSUExampleCatania.node[36].nic.phy80211p busyTime 8.0759493670886e-05
scalar RSUExampleCatania.node[36].nic.mac1609_4 ReceivedUnicastPackets 0
scalar RSUExampleCatania.node[36].nic.mac1609_4 ReceivedBroadcasts 44
scalar RSUExampleCatania.node[36].nic.mac1609_4 SentPackets 1
scalar RSUExampleCatania.node[36].nic.mac1609_4 SentAcknowledgements 0
scalar RSUExampleCatania.node[36].nic.mac1609_4 SNIRLostPackets 11
scalar RSUExampleCatania.node[36].nic.mac1609_4 RXTXLostPackets 0
scalar RSUExampleCatania.node[36].nic.mac1609_4 TotalLostPackets 11
scalar RSUExampleCatania.node[36].nic.mac1609_4 DroppedPacketsInMac 0
scalar RSUExampleCatania.node[36].nic.mac1609_4 TooLittleTime 0
scalar RSUExampleCatania.node[36].nic.mac1609_4 TimesIntoBackoff 1
scalar RSUExampleCatania.node[36].nic.mac1609_4 SlotsBackoff 3
scalar RSUExampleCatania.node[36].nic.mac1609_4 NumInternalContention 0
scalar RSUExampleCatania.node[36].nic.mac1609_4 totalBusyTime 0.012761
scalar RSUExampleCatania.node[36].veinsmobility startTime 46
scalar RSUExampleCatania.node[36].veinsmobility totalTime 157
scalar RSUExampleCatania.node[36].veinsmobility stopTime 204
scalar RSUExampleCatania.node[36].veinsmobility minSpeed 0.28708754734046
scalar RSUExampleCatania.node[36].veinsmobility maxSpeed 15.97890670558
scalar RSUExampleCatania.node[36].veinsmobility totalDistance 1665.3959620674
scalar RSUExampleCatania.node[36].veinsmobility totalCO2Emission 480.84978872876
scalar RSUExampleCatania.node[28].appl generatedWSMs 1
scalar RSUExampleCatania.node[28].appl receivedWSMs 43
scalar RSUExampleCatania.node[28].appl generatedBSMs 0
scalar RSUExampleCatania.node[28].appl receivedBSMs 0
scalar RSUExampleCatania.node[28].appl generatedWSAs 0
scalar RSUExampleCatania.node[28].appl receivedWSAs 0
scalar RSUExampleCatania.node[28].nic.phy80211p busyTime 7.2757396449704e-05
scalar RSUExampleCatania.node[28].nic.mac1609_4 ReceivedUnicastPackets 0
scalar RSUExampleCatania.node[28].nic.mac1609_4 ReceivedBroadcasts 43
scalar RSUExampleCatania.node[28].nic.mac1609_4 SentPackets 1
scalar RSUExampleCatania.node[28].nic.mac1609_4 SentAcknowledgements 0
scalar RSUExampleCatania.node[28].nic.mac1609_4 SNIRLostPackets 10
scalar RSUExampleCatania.node[28].nic.mac1609_4 RXTXLostPackets 0
scalar RSUExampleCatania.node[28].nic.mac1609_4 TotalLostPackets 10
scalar RSUExampleCatania.node[28].nic.mac1609_4 DroppedPacketsInMac 0
scalar RSUExampleCatania.node[28].nic.mac1609_4 TooLittleTime 0
scalar RSUExampleCatania.node[28].nic.mac1609_4 TimesIntoBackoff 1
scalar RSUExampleCatania.node[28].nic.mac1609_4 SlotsBackoff 3
scalar RSUExampleCatania.node[28].nic.mac1609_4 NumInternalContention 0
scalar RSUExampleCatania.node[28].nic.mac1609_4 totalBusyTime 0.012297
scalar RSUExampleCatania.node[28].veinsmobility startTime 36
scalar RSUExampleCatania.node[28].veinsmobility totalTime 168
scalar RSUExampleCatania.node[28].veinsmobility stopTime 205
scalar RSUExampleCatania.node[28].veinsmobility minSpeed 0
scalar RSUExampleCatania.node[28].veinsmobility maxSpeed 15.996195425838
scalar RSUExampleCatania.node[28].veinsmobility totalDistance 1653.4949123662
scalar RSUExampleCatania.node[28].veinsmobility totalCO2Emission 497.46671518651
scalar RSUExampleCatania.node[55].appl generatedWSMs 1
scalar RSUExampleCatania.node[55].appl receivedWSMs 8
scalar RSUExampleCatania.node[55].appl generatedBSMs 0
scalar RSUExampleCatania.node[55].appl receivedBSMs 0
scalar RSUExampleCatania.node[55].appl generatedWSAs 0
scalar RSUExampleCatania.node[55].appl receivedWSAs 0
scalar RSUExampleCatania.node[55].nic.phy80211p busyTime 2.4238805970149e-05
scalar RSUExampleCatania.node[55].nic.mac1609_4 ReceivedUnicastPackets 0
scalar RSUExampleCatania.node[55].nic.mac1609_4 ReceivedBroadcasts 8
scalar RSUExampleCatania.node[55].nic.mac1609_4 SentPackets 1
scalar RSUExampleCatania.node[55].nic.mac1609_4 SentAcknowledgements 0
scalar RSUExampleCatania.node[55].nic.mac1609_4 SNIRLostPackets 6
scalar RSUExampleCatania.node[55].nic.mac1609_4 RXTXLostPackets 0
scalar RSUExampleCatania.node[55].nic.mac1609_4 TotalLostPackets 6
scalar RSUExampleCatania.node[55].nic.mac1609_4 DroppedPacketsInMac 0
scalar RSUExampleCatania.node[55].nic.mac1609_4 TooLittleTime 0
scalar RSUExampleCatania.node[55].nic.mac1609_4 TimesIntoBackoff 1
scalar RSUExampleCatania.node[55].nic.mac1609_4 SlotsBackoff 3
scalar RSUExampleCatania.node[55].nic.mac1609_4 NumInternalContention 0
scalar RSUExampleCatania.node[55].nic.mac1609_4 totalBusyTime 0.003481
scalar RSUExampleCatania.node[55].veinsmobility startTime 71
scalar RSUExampleCatania.node[55].veinsmobility totalTime 133
scalar RSUExampleCatania.node[55].veinsmobility stopTime 205
scalar RSUExampleCatania.node[55].veinsmobility minSpeed 1.8994918676811
scalar RSUExampleCatania.node[55].veinsmobility maxSpeed 15.978505509207
scalar RSUExampleCatania.node[55].veinsmobility totalDistance 1870.8194547811
scalar RSUExampleCatania.node[55].veinsmobility totalCO2Emission 384.14846081815
scalar RSUExampleCatania.node[26].appl generatedWSMs 1
scalar RSUExampleCatania.node[26].appl receivedWSMs 45
scalar RSUExampleCatania.node[26].appl generatedBSMs 0
scalar RSUExampleCatania.node[26].appl receivedBSMs 0
scalar RSUExampleCatania.node[26].appl generatedWSAs 0
scalar RSUExampleCatania.node[26].appl receivedWSAs 0
scalar RSUExampleCatania.node[26].nic.phy80211p busyTime 6.6285714285714e-05
scalar RSUExampleCatania.node[26].nic.mac1609_4 ReceivedUnicastPackets 0
scalar RSUExampleCatania.node[26].nic.mac1609_4 ReceivedBroadcasts 45
scalar RSUExampleCatania.node[26].nic.mac1609_4 SentPackets 1
scalar RSUExampleCatania.node[26].nic.mac1609_4 SentAcknowledgements 0
scalar RSUExampleCatania.node[26].nic.mac1609_4 SNIRLostPackets 5
scalar RSUExampleCatania.node[26].nic.mac1609_4 RXTXLostPackets 0
scalar RSUExampleCatania.node[26].nic.mac1609_4 TotalLostPackets 5
scalar RSUExampleCatania.node[26].nic.mac1609_4 DroppedPacketsInMac 0
scalar RSUExampleCatania.node[26].nic.mac1609_4 TooLittleTime 0
scalar RSUExampleCatania.node[26].nic.mac1609_4 TimesIntoBackoff 1
scalar RSUExampleCatania.node[26].nic.mac1609_4 SlotsBackoff 3
scalar RSUExampleCatania.node[26].nic.mac1609_4 NumInternalContention 0
scalar RSUExampleCatania.node[26].nic.mac1609_4 totalBusyTime 0.011601097485
scalar RSUExampleCatania.node[26].veinsmobility startTime 33
scalar RSUExampleCatania.node[26].veinsmobility totalTime 174
scalar RSUExampleCatania.node[26].veinsmobility stopTime 208
scalar RSUExampleCatania.node[26].veinsmobility minSpeed 0
scalar RSUExampleCatania.node[26].veinsmobility maxSpeed 15.986315062759
scalar RSUExampleCatania.node[26].veinsmobility totalDistance 1671.9406342956
scalar RSUExampleCatania.node[26].veinsmobility totalCO2Emission 495.89582672275
scalar RSUExampleCatania.node[57].appl generatedWSMs 1
scalar RSUExampleCatania.node[57].appl receivedWSMs 15
scalar RSUExampleCatania.node[57].appl generatedBSMs 0
scalar RSUExampleCatania.node[57].appl receivedBSMs 0
scalar RSUExampleCatania.node[57].appl generatedWSAs 0
scalar RSUExampleCatania.node[57].appl receivedWSAs 0
scalar RSUExampleCatania.node[57].nic.phy80211p busyTime 3.0933333333333e-05
scalar RSUExampleCatania.node[57].nic.mac1609_4 ReceivedUnicastPackets 0
scalar RSUExampleCatania.node[57].nic.mac1609_4 ReceivedBroadcasts 15
scalar RSUExampleCatania.node[57].nic.mac1609_4 SentPackets 1
scalar RSUExampleCatania.node[57].nic.mac1609_4 SentAcknowledgements 0
scalar RSUExampleCatania.node[57].nic.mac1609_4 SNIRLostPackets 3
scalar RSUExampleCatania.node[57].nic.mac1609_4 RXTXLostPackets 0
scalar RSUExampleCatania.node[57].nic.mac1609_4 TotalLostPackets 3
scalar RSUExampleCatania.node[57].nic.mac1609_4 DroppedPacketsInMac 0
scalar RSUExampleCatania.node[57].nic.mac1609_4 TooLittleTime 0
scalar RSUExampleCatania.node[57].nic.mac1609_4 TimesIntoBackoff 1
scalar RSUExampleCatania.node[57].nic.mac1609_4 SlotsBackoff 1
scalar RSUExampleCatania.node[57].nic.mac1609_4 NumInternalContention 0
scalar RSUExampleCatania.node[57].nic.mac1609_4 totalBusyTime 0.004409
scalar RSUExampleCatania.node[57].veinsmobility startTime 73
scalar RSUExampleCatania.node[57].veinsmobility totalTime 134
scalar RSUExampleCatania.node[57].veinsmobility stopTime 208
scalar RSUExampleCatania.node[57].veinsmobility minSpeed 0.16783200315973
scalar RSUExampleCatania.node[57].veinsmobility maxSpeed 15.989411442983
scalar RSUExampleCatania.node[57].veinsmobility totalDistance 1870.4575627164
scalar RSUExampleCatania.node[57].veinsmobility totalCO2Emission 398.05529610957
scalar RSUExampleCatania.node[10].appl generatedWSMs 1
scalar RSUExampleCatania.node[10].appl receivedWSMs 44
scalar RSUExampleCatania.node[10].appl generatedBSMs 0
scalar RSUExampleCatania.node[10].appl receivedBSMs 0
scalar RSUExampleCatania.node[10].appl generatedWSAs 0
scalar RSUExampleCatania.node[10].appl receivedWSAs 0
scalar RSUExampleCatania.node[10].nic.phy80211p busyTime 5.9183673469388e-05
scalar RSUExampleCatania.node[10].nic.mac1609_4 ReceivedUnicastPackets 0
scalar RSUExampleCatania.node[10].nic.mac1609_4 ReceivedBroadcasts 44
scalar RSUExampleCatania.node[10].nic.mac1609_4 SentPackets 1
scalar RSUExampleCatania.node[10].nic.mac1609_4 SentAcknowledgements 0
scalar RSUExampleCatania.node[10].nic.mac1609_4 SNIRLostPackets 6
scalar RSUExampleCatania.node[10].nic.mac1609_4 RXTXLostPackets 0
scalar RSUExampleCatania.node[10].nic.mac1609_4 TotalLostPackets 6
scalar RSUExampleCatania.node[10].nic.mac1609_4 DroppedPacketsInMac 0
scalar RSUExampleCatania.node[10].nic.mac1609_4 TooLittleTime 0
scalar RSUExampleCatania.node[10].nic.mac1609_4 TimesIntoBackoff 1
scalar RSUExampleCatania.node[10].nic.mac1609_4 SlotsBackoff 1
scalar RSUExampleCatania.node[10].nic.mac1609_4 NumInternalContention 0
scalar RSUExampleCatania.node[10].nic.mac1609_4 totalBusyTime 0.011601042741
scalar RSUExampleCatania.node[10].veinsmobility startTime 13
scalar RSUExampleCatania.node[10].veinsmobility totalTime 195
scalar RSUExampleCatania.node[10].veinsmobility stopTime 209
scalar RSUExampleCatania.node[10].veinsmobility minSpeed 0
scalar RSUExampleCatania.node[10].veinsmobility maxSpeed 15.967367858277
scalar RSUExampleCatania.node[10].veinsmobility totalDistance 1957.9794501353
scalar RSUExampleCatania.node[10].veinsmobility totalCO2Emission 510.8924935619
scalar RSUExampleCatania.node[59].appl generatedWSMs 1
scalar RSUExampleCatania.node[59].appl receivedWSMs 29
scalar RSUExampleCatania.node[59].appl generatedBSMs 0
scalar RSUExampleCatania.node[59].appl receivedBSMs 0
scalar RSUExampleCatania.node[59].appl generatedWSAs 0
scalar RSUExampleCatania.node[59].appl receivedWSAs 0
scalar RSUExampleCatania.node[59].nic.phy80211p busyTime 6.7522388059701e-05
scalar RSUExampleCatania.node[59].nic.mac1609_4 ReceivedUnicastPackets 0
scalar RSUExampleCatania.node[59].nic.mac1609_4 ReceivedBroadcasts 29
scalar RSUExampleCatania.node[59].nic.mac1609_4 SentPackets 1
scalar RSUExampleCatania.node[59].nic.mac1609_4 SentAcknowledgements 0
scalar RSUExampleCatania.node[59].nic.mac1609_4 SNIRLostPackets 10
scalar RSUExampleCatania.node[59].nic.mac1609_4 RXTXLostPackets 0
scalar RSUExampleCatania.node[59].nic.mac1609_4 TotalLostPackets 10
scalar RSUExampleCatania.node[59].nic.mac1609_4 DroppedPacketsInMac 0
scalar RSUExampleCatania.node[59].nic.mac1609_4 TooLittleTime 0
scalar RSUExampleCatania.node[59].nic.mac1609_4 TimesIntoBackoff 1
scalar RSUExampleCatania.node[59].nic.mac1609_4 SlotsBackoff 1
scalar RSUExampleCatania.node[59].nic.mac1609_4 NumInternalContention 0
scalar RSUExampleCatania.node[59].nic.mac1609_4 totalBusyTime 0.009281
scalar RSUExampleCatania.node[59].veinsmobility startTime 76
scalar RSUExampleCatania.node[59].veinsmobility totalTime 133
scalar RSUExampleCatania.node[59].veinsmobility stopTime 210
scalar RSUExampleCatania.node[59].veinsmobility minSpeed 0.40474525066623
scalar RSUExampleCatania.node[59].veinsmobility maxSpeed 15.995685651246
scalar RSUExampleCatania.node[59].veinsmobility totalDistance 1875.7872867435
scalar RSUExampleCatania.node[59].veinsmobility totalCO2Emission 396.70091589157
scalar RSUExampleCatania.node[61].appl generatedWSMs 1
scalar RSUExampleCatania.node[61].appl receivedWSMs 34
scalar RSUExampleCatania.node[61].appl generatedBSMs 0
scalar RSUExampleCatania.node[61].appl receivedBSMs 0
scalar RSUExampleCatania.node[61].appl generatedWSAs 0
scalar RSUExampleCatania.node[61].appl receivedWSAs 0
scalar RSUExampleCatania.node[61].nic.phy80211p busyTime 6.7522388059701e-05
scalar RSUExampleCatania.node[61].nic.mac1609_4 ReceivedUnicastPackets 0
scalar RSUExampleCatania.node[61].nic.mac1609_4 ReceivedBroadcasts 34
scalar RSUExampleCatania.node[61].nic.mac1609_4 SentPackets 1
scalar RSUExampleCatania.node[61].nic.mac1609_4 SentAcknowledgements 0
scalar RSUExampleCatania.node[61].nic.mac1609_4 SNIRLostPackets 5
scalar RSUExampleCatania.node[61].nic.mac1609_4 RXTXLostPackets 0
scalar RSUExampleCatania.node[61].nic.mac1609_4 TotalLostPackets 5
scalar RSUExampleCatania.node[61].nic.mac1609_4 DroppedPacketsInMac 0
scalar RSUExampleCatania.node[61].nic.mac1609_4 TooLittleTime 0
scalar RSUExampleCatania.node[61].nic.mac1609_4 TimesIntoBackoff 1
scalar RSUExampleCatania.node[61].nic.mac1609_4 SlotsBackoff 3
scalar RSUExampleCatania.node[61].nic.mac1609_4 NumInternalContention 0
scalar RSUExampleCatania.node[61].nic.mac1609_4 totalBusyTime 0.009281
scalar RSUExampleCatania.node[61].veinsmobility startTime 79
scalar RSUExampleCatania.node[61].veinsmobility totalTime 133
scalar RSUExampleCatania.node[61].veinsmobility stopTime 213
scalar RSUExampleCatania.node[61].veinsmobility minSpeed 0.75521515107051
scalar RSUExampleCatania.node[61].veinsmobility maxSpeed 15.985068502789
scalar RSUExampleCatania.node[61].veinsmobility totalDistance 1874.585972232
scalar RSUExampleCatania.node[61].veinsmobility totalCO2Emission 393.69495472762
scalar RSUExampleCatania.node[30].appl generatedWSMs 1
scalar RSUExampleCatania.node[30].appl receivedWSMs 42
scalar RSUExampleCatania.node[30].appl generatedBSMs 0
scalar RSUExampleCatania.node[30].appl receivedBSMs 0
scalar RSUExampleCatania.node[30].appl generatedWSAs 0
scalar RSUExampleCatania.node[30].appl receivedWSAs 0
scalar RSUExampleCatania.node[30].nic.phy80211p busyTime 6.0676923076923e-05
scalar RSUExampleCatania.node[30].nic.mac1609_4 ReceivedUnicastPackets 0
scalar RSUExampleCatania.node[30].nic.mac1609_4 ReceivedBroadcasts 42
scalar RSUExampleCatania.node[30].nic.mac1609_4 SentPackets 1
scalar RSUExampleCatania.node[30].nic.mac1609_4 SentAcknowledgements 0
scalar RSUExampleCatania.node[30].nic.mac1609_4 SNIRLostPackets 9
scalar RSUExampleCatania.node[30].nic.mac1609_4 RXTXLostPackets 0
scalar RSUExampleCatania.node[30].nic.mac1609_4 TotalLostPackets 9
scalar RSUExampleCatania.node[30].nic.mac1609_4 DroppedPacketsInMac 0
scalar RSUExampleCatania.node[30].nic.mac1609_4 TooLittleTime 0
scalar RSUExampleCatania.node[30].nic.mac1609_4 TimesIntoBackoff 1
scalar RSUExampleCatania.node[30].nic.mac1609_4 SlotsBackoff 2
scalar RSUExampleCatania.node[30].nic.mac1609_4 NumInternalContention 0
scalar RSUExampleCatania.node[30].nic.mac1609_4 totalBusyTime 0.011833
scalar RSUExampleCatania.node[30].veinsmobility startTime 38
scalar RSUExampleCatania.node[30].veinsmobility totalTime 194
scalar RSUExampleCatania.node[30].veinsmobility stopTime 233
scalar RSUExampleCatania.node[30].veinsmobility minSpeed 0
scalar RSUExampleCatania.node[30].veinsmobility maxSpeed 15.960772391688
scalar RSUExampleCatania.node[30].veinsmobility totalDistance 1678.617115122
scalar RSUExampleCatania.node[30].veinsmobility totalCO2Emission 468.91478263325
scalar RSUExampleCatania.node[58].appl generatedWSMs 1
scalar RSUExampleCatania.node[58].appl receivedWSMs 20
scalar RSUExampleCatania.node[58].appl generatedBSMs 0
scalar RSUExampleCatania.node[58].appl receivedBSMs 0
scalar RSUExampleCatania.node[58].appl generatedWSAs 0
scalar RSUExampleCatania.node[58].appl receivedWSAs 0
scalar RSUExampleCatania.node[58].nic.phy80211p busyTime 2.7784431137725e-05
scalar RSUExampleCatania.node[58].nic.mac1609_4 ReceivedUnicastPackets 0
scalar RSUExampleCatania.node[58].nic.mac1609_4 ReceivedBroadcasts 20
scalar RSUExampleCatania.node[58].nic.mac1609_4 SentPackets 1
scalar RSUExampleCatania.node[58].nic.mac1609_4 SentAcknowledgements 0
scalar RSUExampleCatania.node[58].nic.mac1609_4 SNIRLostPackets 0
scalar RSUExampleCatania.node[58].nic.mac1609_4 RXTXLostPackets 0
scalar RSUExampleCatania.node[58].nic.mac1609_4 TotalLostPackets 0
scalar RSUExampleCatania.node[58].nic.mac1609_4 DroppedPacketsInMac 0
scalar RSUExampleCatania.node[58].nic.mac1609_4 TooLittleTime 0
scalar RSUExampleCatania.node[58].nic.mac1609_4 TimesIntoBackoff 1
scalar RSUExampleCatania.node[58].nic.mac1609_4 SlotsBackoff 3
scalar RSUExampleCatania.node[58].nic.mac1609_4 NumInternalContention 0
scalar RSUExampleCatania.node[58].nic.mac1609_4 totalBusyTime 0.004873
scalar RSUExampleCatania.node[58].veinsmobility startTime 74
scalar RSUExampleCatania.node[58].veinsmobility totalTime 166
scalar RSUExampleCatania.node[58].veinsmobility stopTime 241
scalar RSUExampleCatania.node[58].veinsmobility minSpeed 0
scalar RSUExampleCatania.node[58].veinsmobility maxSpeed 15.968333445396
scalar RSUExampleCatania.node[58].veinsmobility totalDistance 2170.6220247513
scalar RSUExampleCatania.node[58].veinsmobility totalCO2Emission 459.37578709299
scalar RSUExampleCatania.node[62].appl generatedWSMs 1
scalar RSUExampleCatania.node[62].appl receivedWSMs 20
scalar RSUExampleCatania.node[62].appl generatedBSMs 0
scalar RSUExampleCatania.node[62].appl receivedBSMs 0
scalar RSUExampleCatania.node[62].appl generatedWSAs 0
scalar RSUExampleCatania.node[62].appl receivedWSAs 0
scalar RSUExampleCatania.node[62].nic.phy80211p busyTime 2.6666666666667e-05
scalar RSUExampleCatania.node[62].nic.mac1609_4 ReceivedUnicastPackets 0
scalar RSUExampleCatania.node[62].nic.mac1609_4 ReceivedBroadcasts 20
scalar RSUExampleCatania.node[62].nic.mac1609_4 SentPackets 1
scalar RSUExampleCatania.node[62].nic.mac1609_4 SentAcknowledgements 0
scalar RSUExampleCatania.node[62].nic.mac1609_4 SNIRLostPackets 0
scalar RSUExampleCatania.node[62].nic.mac1609_4 RXTXLostPackets 0
scalar RSUExampleCatania.node[62].nic.mac1609_4 TotalLostPackets 0
scalar RSUExampleCatania.node[62].nic.mac1609_4 DroppedPacketsInMac 0
scalar RSUExampleCatania.node[62].nic.mac1609_4 TooLittleTime 0
scalar RSUExampleCatania.node[62].nic.mac1609_4 TimesIntoBackoff 1
scalar RSUExampleCatania.node[62].nic.mac1609_4 SlotsBackoff 0
scalar RSUExampleCatania.node[62].nic.mac1609_4 NumInternalContention 0
scalar RSUExampleCatania.node[62].nic.mac1609_4 totalBusyTime 0.004873
scalar RSUExampleCatania.node[62].veinsmobility startTime 79
scalar RSUExampleCatania.node[62].veinsmobility totalTime 173
scalar RSUExampleCatania.node[62].veinsmobility stopTime 253
scalar RSUExampleCatania.node[62].veinsmobility minSpeed 0
scalar RSUExampleCatania.node[62].veinsmobility maxSpeed 15.993899643468
scalar RSUExampleCatania.node[62].veinsmobility totalDistance 2172.3841384407
scalar RSUExampleCatania.node[62].veinsmobility totalCO2Emission 469.48792864853
scalar RSUExampleCatania.node[64].appl generatedWSMs 1
scalar RSUExampleCatania.node[64].appl receivedWSMs 18
scalar RSUExampleCatania.node[64].appl generatedBSMs 0
scalar RSUExampleCatania.node[64].appl receivedBSMs 0
scalar RSUExampleCatania.node[64].appl generatedWSAs 0
scalar RSUExampleCatania.node[64].appl receivedWSAs 0
scalar RSUExampleCatania.node[64].nic.phy80211p busyTime 2.6067415730337e-05
scalar RSUExampleCatania.node[64].nic.mac1609_4 ReceivedUnicastPackets 0
scalar RSUExampleCatania.node[64].nic.mac1609_4 ReceivedBroadcasts 18
scalar RSUExampleCatania.node[64].nic.mac1609_4 SentPackets 1
scalar RSUExampleCatania.node[64].nic.mac1609_4 SentAcknowledgements 0
scalar RSUExampleCatania.node[64].nic.mac1609_4 SNIRLostPackets 2
scalar RSUExampleCatania.node[64].nic.mac1609_4 RXTXLostPackets 0
scalar RSUExampleCatania.node[64].nic.mac1609_4 TotalLostPackets 2
scalar RSUExampleCatania.node[64].nic.mac1609_4 DroppedPacketsInMac 0
scalar RSUExampleCatania.node[64].nic.mac1609_4 TooLittleTime 0
scalar RSUExampleCatania.node[64].nic.mac1609_4 TimesIntoBackoff 1
scalar RSUExampleCatania.node[64].nic.mac1609_4 SlotsBackoff 2
scalar RSUExampleCatania.node[64].nic.mac1609_4 NumInternalContention 0
scalar RSUExampleCatania.node[64].nic.mac1609_4 totalBusyTime 0.004873
scalar RSUExampleCatania.node[64].veinsmobility startTime 82
scalar RSUExampleCatania.node[64].veinsmobility totalTime 177
scalar RSUExampleCatania.node[64].veinsmobility stopTime 260
scalar RSUExampleCatania.node[64].veinsmobility minSpeed 0
scalar RSUExampleCatania.node[64].veinsmobility maxSpeed 15.981545650912
scalar RSUExampleCatania.node[64].veinsmobility totalDistance 2171.1882391109
scalar RSUExampleCatania.node[64].veinsmobility totalCO2Emission 466.68968790856
scalar RSUExampleCatania.node[66].appl generatedWSMs 1
scalar RSUExampleCatania.node[66].appl receivedWSMs 17
scalar RSUExampleCatania.node[66].appl generatedBSMs 0
scalar RSUExampleCatania.node[66].appl receivedBSMs 0
scalar RSUExampleCatania.node[66].appl generatedWSAs 0
scalar RSUExampleCatania.node[66].appl receivedWSAs 0
scalar RSUExampleCatania.node[66].nic.phy80211p busyTime 2.5355191256831e-05
scalar RSUExampleCatania.node[66].nic.mac1609_4 ReceivedUnicastPackets 0
scalar RSUExampleCatania.node[66].nic.mac1609_4 ReceivedBroadcasts 17
scalar RSUExampleCatania.node[66].nic.mac1609_4 SentPackets 1
scalar RSUExampleCatania.node[66].nic.mac1609_4 SentAcknowledgements 0
scalar RSUExampleCatania.node[66].nic.mac1609_4 SNIRLostPackets 3
scalar RSUExampleCatania.node[66].nic.mac1609_4 RXTXLostPackets 0
scalar RSUExampleCatania.node[66].nic.mac1609_4 TotalLostPackets 3
scalar RSUExampleCatania.node[66].nic.mac1609_4 DroppedPacketsInMac 0
scalar RSUExampleCatania.node[66].nic.mac1609_4 TooLittleTime 0
scalar RSUExampleCatania.node[66].nic.mac1609_4 TimesIntoBackoff 1
scalar RSUExampleCatania.node[66].nic.mac1609_4 SlotsBackoff 3
scalar RSUExampleCatania.node[66].nic.mac1609_4 NumInternalContention 0
scalar RSUExampleCatania.node[66].nic.mac1609_4 totalBusyTime 0.004873
scalar RSUExampleCatania.node[66].veinsmobility startTime 84
scalar RSUExampleCatania.node[66].veinsmobility totalTime 182
scalar RSUExampleCatania.node[66].veinsmobility stopTime 267
scalar RSUExampleCatania.node[66].veinsmobility minSpeed 0.00038521583934396
scalar RSUExampleCatania.node[66].veinsmobility maxSpeed 15.994663653383
scalar RSUExampleCatania.node[66].veinsmobility totalDistance 2179.4080944219
scalar RSUExampleCatania.node[66].veinsmobility totalCO2Emission 479.52908851488
scalar RSUExampleCatania.node[50].appl generatedWSMs 1
scalar RSUExampleCatania.node[50].appl receivedWSMs 35
scalar RSUExampleCatania.node[50].appl generatedBSMs 0
scalar RSUExampleCatania.node[50].appl receivedBSMs 0
scalar RSUExampleCatania.node[50].appl generatedWSAs 0
scalar RSUExampleCatania.node[50].appl receivedWSAs 0
scalar RSUExampleCatania.node[50].nic.phy80211p busyTime 6.6770731707317e-05
scalar RSUExampleCatania.node[50].nic.mac1609_4 ReceivedUnicastPackets 0
scalar RSUExampleCatania.node[50].nic.mac1609_4 ReceivedBroadcasts 35
scalar RSUExampleCatania.node[50].nic.mac1609_4 SentPackets 1
scalar RSUExampleCatania.node[50].nic.mac1609_4 SentAcknowledgements 0
scalar RSUExampleCatania.node[50].nic.mac1609_4 SNIRLostPackets 24
scalar RSUExampleCatania.node[50].nic.mac1609_4 RXTXLostPackets 0
scalar RSUExampleCatania.node[50].nic.mac1609_4 TotalLostPackets 24
scalar RSUExampleCatania.node[50].nic.mac1609_4 DroppedPacketsInMac 0
scalar RSUExampleCatania.node[50].nic.mac1609_4 TooLittleTime 0
scalar RSUExampleCatania.node[50].nic.mac1609_4 TimesIntoBackoff 1
scalar RSUExampleCatania.node[50].nic.mac1609_4 SlotsBackoff 2
scalar RSUExampleCatania.node[50].nic.mac1609_4 NumInternalContention 0
scalar RSUExampleCatania.node[50].nic.mac1609_4 totalBusyTime 0.013689
scalar RSUExampleCatania.node[50].veinsmobility startTime 64
scalar RSUExampleCatania.node[50].veinsmobility totalTime 204
scalar RSUExampleCatania.node[50].veinsmobility stopTime 269
scalar RSUExampleCatania.node[50].veinsmobility minSpeed 0
scalar RSUExampleCatania.node[50].veinsmobility maxSpeed 15.996642653155
scalar RSUExampleCatania.node[50].veinsmobility totalDistance 2183.5374048471
scalar RSUExampleCatania.node[50].veinsmobility totalCO2Emission 499.18450059711
scalar RSUExampleCatania.node[63].appl generatedWSMs 1
scalar RSUExampleCatania.node[63].appl receivedWSMs 32
scalar RSUExampleCatania.node[63].appl generatedBSMs 0
scalar RSUExampleCatania.node[63].appl receivedBSMs 0
scalar RSUExampleCatania.node[63].appl generatedWSAs 0
scalar RSUExampleCatania.node[63].appl receivedWSAs 0
scalar RSUExampleCatania.node[63].nic.phy80211p busyTime 4.7873015873016e-05
scalar RSUExampleCatania.node[63].nic.mac1609_4 ReceivedUnicastPackets 0
scalar RSUExampleCatania.node[63].nic.mac1609_4 ReceivedBroadcasts 32
scalar RSUExampleCatania.node[63].nic.mac1609_4 SentPackets 1
scalar RSUExampleCatania.node[63].nic.mac1609_4 SentAcknowledgements 0
scalar RSUExampleCatania.node[63].nic.mac1609_4 SNIRLostPackets 7
scalar RSUExampleCatania.node[63].nic.mac1609_4 RXTXLostPackets 0
scalar RSUExampleCatania.node[63].nic.mac1609_4 TotalLostPackets 7
scalar RSUExampleCatania.node[63].nic.mac1609_4 DroppedPacketsInMac 0
scalar RSUExampleCatania.node[63].nic.mac1609_4 TooLittleTime 0
scalar RSUExampleCatania.node[63].nic.mac1609_4 TimesIntoBackoff 1
scalar RSUExampleCatania.node[63].nic.mac1609_4 SlotsBackoff 1
scalar RSUExampleCatania.node[63].nic.mac1609_4 NumInternalContention 0
scalar RSUExampleCatania.node[63].nic.mac1609_4 totalBusyTime 0.009281
scalar RSUExampleCatania.node[63].veinsmobility startTime 82
scalar RSUExampleCatania.node[63].veinsmobility totalTime 188
scalar RSUExampleCatania.node[63].veinsmobility stopTime 271
scalar RSUExampleCatania.node[63].veinsmobility minSpeed 0
[...]
scalar RSUExampleCatania.node[42].veinsmobility maxSpeed 15.993331582728
scalar RSUExampleCatania.node[42].veinsmobility totalDistance 2834.3531977901
scalar RSUExampleCatania.node[42].veinsmobility totalCO2Emission 820.0704208006
scalar RSUExampleCatania.node[29].appl generatedWSMs 1
scalar RSUExampleCatania.node[29].appl receivedWSMs 45
scalar RSUExampleCatania.node[29].appl generatedBSMs 0
scalar RSUExampleCatania.node[29].appl receivedBSMs 0
scalar RSUExampleCatania.node[29].appl generatedWSAs 0
scalar RSUExampleCatania.node[29].appl receivedWSAs 0
scalar RSUExampleCatania.node[29].nic.phy80211p busyTime 4.085049833887e-05
scalar RSUExampleCatania.node[29].nic.mac1609_4 ReceivedUnicastPackets 0
scalar RSUExampleCatania.node[29].nic.mac1609_4 ReceivedBroadcasts 45
scalar RSUExampleCatania.node[29].nic.mac1609_4 SentPackets 1
scalar RSUExampleCatania.node[29].nic.mac1609_4 SentAcknowledgements 0
scalar RSUExampleCatania.node[29].nic.mac1609_4 SNIRLostPackets 8
scalar RSUExampleCatania.node[29].nic.mac1609_4 RXTXLostPackets 0
scalar RSUExampleCatania.node[29].nic.mac1609_4 TotalLostPackets 8
scalar RSUExampleCatania.node[29].nic.mac1609_4 DroppedPacketsInMac 0
scalar RSUExampleCatania.node[29].nic.mac1609_4 TooLittleTime 0
scalar RSUExampleCatania.node[29].nic.mac1609_4 TimesIntoBackoff 1
scalar RSUExampleCatania.node[29].nic.mac1609_4 SlotsBackoff 0
scalar RSUExampleCatania.node[29].nic.mac1609_4 NumInternalContention 0
scalar RSUExampleCatania.node[29].nic.mac1609_4 totalBusyTime 0.012297
scalar RSUExampleCatania.node[29].veinsmobility startTime 38
scalar RSUExampleCatania.node[29].veinsmobility totalTime 300
scalar RSUExampleCatania.node[29].veinsmobility stopTime 339
scalar RSUExampleCatania.node[29].veinsmobility minSpeed 0
scalar RSUExampleCatania.node[29].veinsmobility maxSpeed 15.991778877843
scalar RSUExampleCatania.node[29].veinsmobility totalDistance 3124.6270652492
scalar RSUExampleCatania.node[29].veinsmobility totalCO2Emission 845.16018952303
scalar RSUExampleCatania.node[46].appl generatedWSMs 1
scalar RSUExampleCatania.node[46].appl receivedWSMs 44
scalar RSUExampleCatania.node[46].appl generatedBSMs 0
scalar RSUExampleCatania.node[46].appl receivedBSMs 0
scalar RSUExampleCatania.node[46].appl generatedWSAs 0
scalar RSUExampleCatania.node[46].appl receivedWSAs 0
scalar RSUExampleCatania.node[46].nic.phy80211p busyTime 4.2843205574913e-05
scalar RSUExampleCatania.node[46].nic.mac1609_4 ReceivedUnicastPackets 0
scalar RSUExampleCatania.node[46].nic.mac1609_4 ReceivedBroadcasts 44
scalar RSUExampleCatania.node[46].nic.mac1609_4 SentPackets 1
scalar RSUExampleCatania.node[46].nic.mac1609_4 SentAcknowledgements 0
scalar RSUExampleCatania.node[46].nic.mac1609_4 SNIRLostPackets 9
scalar RSUExampleCatania.node[46].nic.mac1609_4 RXTXLostPackets 0
scalar RSUExampleCatania.node[46].nic.mac1609_4 TotalLostPackets 9
scalar RSUExampleCatania.node[46].nic.mac1609_4 DroppedPacketsInMac 0
scalar RSUExampleCatania.node[46].nic.mac1609_4 TooLittleTime 0
scalar RSUExampleCatania.node[46].nic.mac1609_4 TimesIntoBackoff 1
scalar RSUExampleCatania.node[46].nic.mac1609_4 SlotsBackoff 1
scalar RSUExampleCatania.node[46].nic.mac1609_4 NumInternalContention 0
scalar RSUExampleCatania.node[46].nic.mac1609_4 totalBusyTime 0.012297
scalar RSUExampleCatania.node[46].veinsmobility startTime 58
scalar RSUExampleCatania.node[46].veinsmobility totalTime 286
scalar RSUExampleCatania.node[46].veinsmobility stopTime 345
scalar RSUExampleCatania.node[46].veinsmobility minSpeed 0
scalar RSUExampleCatania.node[46].veinsmobility maxSpeed 15.999654484005
scalar RSUExampleCatania.node[46].veinsmobility totalDistance 2835.4781690409
scalar RSUExampleCatania.node[46].veinsmobility totalCO2Emission 836.19545243708
scalar RSUExampleCatania.node[32].appl generatedWSMs 1
scalar RSUExampleCatania.node[32].appl receivedWSMs 45
scalar RSUExampleCatania.node[32].appl generatedBSMs 0
scalar RSUExampleCatania.node[32].appl receivedBSMs 0
scalar RSUExampleCatania.node[32].appl generatedWSAs 0
scalar RSUExampleCatania.node[32].appl receivedWSAs 0
scalar RSUExampleCatania.node[32].nic.phy80211p busyTime 3.9424836601307e-05
scalar RSUExampleCatania.node[32].nic.mac1609_4 ReceivedUnicastPackets 0
scalar RSUExampleCatania.node[32].nic.mac1609_4 ReceivedBroadcasts 45
scalar RSUExampleCatania.node[32].nic.mac1609_4 SentPackets 1
scalar RSUExampleCatania.node[32].nic.mac1609_4 SentAcknowledgements 0
scalar RSUExampleCatania.node[32].nic.mac1609_4 SNIRLostPackets 7
scalar RSUExampleCatania.node[32].nic.mac1609_4 RXTXLostPackets 0
scalar RSUExampleCatania.node[32].nic.mac1609_4 TotalLostPackets 7
scalar RSUExampleCatania.node[32].nic.mac1609_4 DroppedPacketsInMac 0
scalar RSUExampleCatania.node[32].nic.mac1609_4 TooLittleTime 0
scalar RSUExampleCatania.node[32].nic.mac1609_4 TimesIntoBackoff 1
scalar RSUExampleCatania.node[32].nic.mac1609_4 SlotsBackoff 3
scalar RSUExampleCatania.node[32].nic.mac1609_4 NumInternalContention 0
scalar RSUExampleCatania.node[32].nic.mac1609_4 totalBusyTime 0.012065
scalar RSUExampleCatania.node[32].veinsmobility startTime 41
scalar RSUExampleCatania.node[32].veinsmobility totalTime 305
scalar RSUExampleCatania.node[32].veinsmobility stopTime 347
scalar RSUExampleCatania.node[32].veinsmobility minSpeed 0
scalar RSUExampleCatania.node[32].veinsmobility maxSpeed 15.985455773165
scalar RSUExampleCatania.node[32].veinsmobility totalDistance 3128.8839560043
scalar RSUExampleCatania.node[32].veinsmobility totalCO2Emission 899.24692058252
scalar RSUExampleCatania.node[33].appl generatedWSMs 1
scalar RSUExampleCatania.node[33].appl receivedWSMs 43
scalar RSUExampleCatania.node[33].appl generatedBSMs 0
scalar RSUExampleCatania.node[33].appl receivedBSMs 0
scalar RSUExampleCatania.node[33].appl generatedWSAs 0
scalar RSUExampleCatania.node[33].appl receivedWSAs 0
scalar RSUExampleCatania.node[33].nic.phy80211p busyTime 4.1075409836066e-05
scalar RSUExampleCatania.node[33].nic.mac1609_4 ReceivedUnicastPackets 0
scalar RSUExampleCatania.node[33].nic.mac1609_4 ReceivedBroadcasts 43
scalar RSUExampleCatania.node[33].nic.mac1609_4 SentPackets 1
scalar RSUExampleCatania.node[33].nic.mac1609_4 SentAcknowledgements 0
scalar RSUExampleCatania.node[33].nic.mac1609_4 SNIRLostPackets 11
scalar RSUExampleCatania.node[33].nic.mac1609_4 RXTXLostPackets 0
scalar RSUExampleCatania.node[33].nic.mac1609_4 TotalLostPackets 11
scalar RSUExampleCatania.node[33].nic.mac1609_4 DroppedPacketsInMac 0
scalar RSUExampleCatania.node[33].nic.mac1609_4 TooLittleTime 0
scalar RSUExampleCatania.node[33].nic.mac1609_4 TimesIntoBackoff 2
scalar RSUExampleCatania.node[33].nic.mac1609_4 SlotsBackoff 2
scalar RSUExampleCatania.node[33].nic.mac1609_4 NumInternalContention 0
scalar RSUExampleCatania.node[33].nic.mac1609_4 totalBusyTime 0.012529
scalar RSUExampleCatania.node[33].veinsmobility startTime 43
scalar RSUExampleCatania.node[33].veinsmobility totalTime 304
scalar RSUExampleCatania.node[33].veinsmobility stopTime 348
scalar RSUExampleCatania.node[33].veinsmobility minSpeed 0
scalar RSUExampleCatania.node[33].veinsmobility maxSpeed 15.950725306803
scalar RSUExampleCatania.node[33].veinsmobility totalDistance 3121.2260220041
scalar RSUExampleCatania.node[33].veinsmobility totalCO2Emission 895.4640036397
scalar RSUExampleCatania.node[37].appl generatedWSMs 1
scalar RSUExampleCatania.node[37].appl receivedWSMs 46
scalar RSUExampleCatania.node[37].appl generatedBSMs 0
scalar RSUExampleCatania.node[37].appl receivedBSMs 0
scalar RSUExampleCatania.node[37].appl generatedWSAs 0
scalar RSUExampleCatania.node[37].appl receivedWSAs 0
scalar RSUExampleCatania.node[37].nic.phy80211p busyTime 4.6092715231788e-05
scalar RSUExampleCatania.node[37].nic.mac1609_4 ReceivedUnicastPackets 0
scalar RSUExampleCatania.node[37].nic.mac1609_4 ReceivedBroadcasts 46
scalar RSUExampleCatania.node[37].nic.mac1609_4 SentPackets 1
scalar RSUExampleCatania.node[37].nic.mac1609_4 SentAcknowledgements 0
scalar RSUExampleCatania.node[37].nic.mac1609_4 SNIRLostPackets 14
scalar RSUExampleCatania.node[37].nic.mac1609_4 RXTXLostPackets 0
scalar RSUExampleCatania.node[37].nic.mac1609_4 TotalLostPackets 14
scalar RSUExampleCatania.node[37].nic.mac1609_4 DroppedPacketsInMac 0
scalar RSUExampleCatania.node[37].nic.mac1609_4 TooLittleTime 0
scalar RSUExampleCatania.node[37].nic.mac1609_4 TimesIntoBackoff 1
scalar RSUExampleCatania.node[37].nic.mac1609_4 SlotsBackoff 1
scalar RSUExampleCatania.node[37].nic.mac1609_4 NumInternalContention 0
scalar RSUExampleCatania.node[37].nic.mac1609_4 totalBusyTime 0.013921
scalar RSUExampleCatania.node[37].veinsmobility startTime 48
scalar RSUExampleCatania.node[37].veinsmobility totalTime 301
scalar RSUExampleCatania.node[37].veinsmobility stopTime 350
scalar RSUExampleCatania.node[37].veinsmobility minSpeed 0
scalar RSUExampleCatania.node[37].veinsmobility maxSpeed 15.999529882823
scalar RSUExampleCatania.node[37].veinsmobility totalDistance 3127.8682475479
scalar RSUExampleCatania.node[37].veinsmobility totalCO2Emission 861.06230562699
scalar RSUExampleCatania.node[35].appl generatedWSMs 1
scalar RSUExampleCatania.node[35].appl receivedWSMs 46
scalar RSUExampleCatania.node[35].appl generatedBSMs 0
scalar RSUExampleCatania.node[35].appl receivedBSMs 0
scalar RSUExampleCatania.node[35].appl generatedWSAs 0
scalar RSUExampleCatania.node[35].appl receivedWSAs 0
scalar RSUExampleCatania.node[35].nic.phy80211p busyTime 4.2520900321543e-05
scalar RSUExampleCatania.node[35].nic.mac1609_4 ReceivedUnicastPackets 0
scalar RSUExampleCatania.node[35].nic.mac1609_4 ReceivedBroadcasts 46
scalar RSUExampleCatania.node[35].nic.mac1609_4 SentPackets 1
scalar RSUExampleCatania.node[35].nic.mac1609_4 SentAcknowledgements 0
scalar RSUExampleCatania.node[35].nic.mac1609_4 SNIRLostPackets 11
scalar RSUExampleCatania.node[35].nic.mac1609_4 RXTXLostPackets 0
scalar RSUExampleCatania.node[35].nic.mac1609_4 TotalLostPackets 11
scalar RSUExampleCatania.node[35].nic.mac1609_4 DroppedPacketsInMac 0
scalar RSUExampleCatania.node[35].nic.mac1609_4 TooLittleTime 0
scalar RSUExampleCatania.node[35].nic.mac1609_4 TimesIntoBackoff 1
scalar RSUExampleCatania.node[35].nic.mac1609_4 SlotsBackoff 0
scalar RSUExampleCatania.node[35].nic.mac1609_4 NumInternalContention 0
scalar RSUExampleCatania.node[35].nic.mac1609_4 totalBusyTime 0.013225
scalar RSUExampleCatania.node[35].veinsmobility startTime 46
scalar RSUExampleCatania.node[35].veinsmobility totalTime 310
scalar RSUExampleCatania.node[35].veinsmobility stopTime 357
scalar RSUExampleCatania.node[35].veinsmobility minSpeed 0
scalar RSUExampleCatania.node[35].veinsmobility maxSpeed 15.983417861303
scalar RSUExampleCatania.node[35].veinsmobility totalDistance 3131.1771387714
scalar RSUExampleCatania.node[35].veinsmobility totalCO2Emission 882.80810545298
scalar RSUExampleCatania.node[39].appl generatedWSMs 1
scalar RSUExampleCatania.node[39].appl receivedWSMs 22
scalar RSUExampleCatania.node[39].appl generatedBSMs 0
scalar RSUExampleCatania.node[39].appl receivedBSMs 0
scalar RSUExampleCatania.node[39].appl generatedWSAs 0
scalar RSUExampleCatania.node[39].appl receivedWSAs 0
scalar RSUExampleCatania.node[39].nic.phy80211p busyTime 3.4649350649351e-05
scalar RSUExampleCatania.node[39].nic.mac1609_4 ReceivedUnicastPackets 0
scalar RSUExampleCatania.node[39].nic.mac1609_4 ReceivedBroadcasts 22
scalar RSUExampleCatania.node[39].nic.mac1609_4 SentPackets 1
scalar RSUExampleCatania.node[39].nic.mac1609_4 SentAcknowledgements 0
scalar RSUExampleCatania.node[39].nic.mac1609_4 SNIRLostPackets 24
scalar RSUExampleCatania.node[39].nic.mac1609_4 RXTXLostPackets 0
scalar RSUExampleCatania.node[39].nic.mac1609_4 TotalLostPackets 24
scalar RSUExampleCatania.node[39].nic.mac1609_4 DroppedPacketsInMac 0
scalar RSUExampleCatania.node[39].nic.mac1609_4 TooLittleTime 0
scalar RSUExampleCatania.node[39].nic.mac1609_4 TimesIntoBackoff 1
scalar RSUExampleCatania.node[39].nic.mac1609_4 SlotsBackoff 3
scalar RSUExampleCatania.node[39].nic.mac1609_4 NumInternalContention 0
scalar RSUExampleCatania.node[39].nic.mac1609_4 totalBusyTime 0.010673
scalar RSUExampleCatania.node[39].veinsmobility startTime 50
scalar RSUExampleCatania.node[39].veinsmobility totalTime 307
scalar RSUExampleCatania.node[39].veinsmobility stopTime 358
scalar RSUExampleCatania.node[39].veinsmobility minSpeed 0.00030644833761191
scalar RSUExampleCatania.node[39].veinsmobility maxSpeed 15.999030823703
scalar RSUExampleCatania.node[39].veinsmobility totalDistance 3120.8810263905
scalar RSUExampleCatania.node[39].veinsmobility totalCO2Emission 882.36388620188
scalar RSUExampleCatania.node[41].appl generatedWSMs 1
scalar RSUExampleCatania.node[41].appl receivedWSMs 27
scalar RSUExampleCatania.node[41].appl generatedBSMs 0
scalar RSUExampleCatania.node[41].appl receivedBSMs 0
scalar RSUExampleCatania.node[41].appl generatedWSAs 0
scalar RSUExampleCatania.node[41].appl receivedWSAs 0
scalar RSUExampleCatania.node[41].nic.phy80211p busyTime 2.7960912052117e-05
scalar RSUExampleCatania.node[41].nic.mac1609_4 ReceivedUnicastPackets 0
scalar RSUExampleCatania.node[41].nic.mac1609_4 ReceivedBroadcasts 27
scalar RSUExampleCatania.node[41].nic.mac1609_4 SentPackets 1
scalar RSUExampleCatania.node[41].nic.mac1609_4 SentAcknowledgements 0
scalar RSUExampleCatania.node[41].nic.mac1609_4 SNIRLostPackets 10
scalar RSUExampleCatania.node[41].nic.mac1609_4 RXTXLostPackets 0
scalar RSUExampleCatania.node[41].nic.mac1609_4 TotalLostPackets 10
scalar RSUExampleCatania.node[41].nic.mac1609_4 DroppedPacketsInMac 0
scalar RSUExampleCatania.node[41].nic.mac1609_4 TooLittleTime 0
scalar RSUExampleCatania.node[41].nic.mac1609_4 TimesIntoBackoff 1
scalar RSUExampleCatania.node[41].nic.mac1609_4 SlotsBackoff 2
scalar RSUExampleCatania.node[41].nic.mac1609_4 NumInternalContention 0
scalar RSUExampleCatania.node[41].nic.mac1609_4 totalBusyTime 0.008817
scalar RSUExampleCatania.node[41].veinsmobility startTime 53
scalar RSUExampleCatania.node[41].veinsmobility totalTime 306
scalar RSUExampleCatania.node[41].veinsmobility stopTime 360
scalar RSUExampleCatania.node[41].veinsmobility minSpeed 0.00055071711314218
scalar RSUExampleCatania.node[41].veinsmobility maxSpeed 15.996080036415
scalar RSUExampleCatania.node[41].veinsmobility totalDistance 3123.7579936966
scalar RSUExampleCatania.node[41].veinsmobility totalCO2Emission 871.53804961525
scalar RSUExampleCatania.node[43].appl generatedWSMs 1
scalar RSUExampleCatania.node[43].appl receivedWSMs 27
scalar RSUExampleCatania.node[43].appl generatedBSMs 0
scalar RSUExampleCatania.node[43].appl receivedBSMs 0
scalar RSUExampleCatania.node[43].appl generatedWSAs 0
scalar RSUExampleCatania.node[43].appl receivedWSAs 0
scalar RSUExampleCatania.node[43].nic.phy80211p busyTime 2.7294117647059e-05
scalar RSUExampleCatania.node[43].nic.mac1609_4 ReceivedUnicastPackets 0
scalar RSUExampleCatania.node[43].nic.mac1609_4 ReceivedBroadcasts 27
scalar RSUExampleCatania.node[43].nic.mac1609_4 SentPackets 1
scalar RSUExampleCatania.node[43].nic.mac1609_4 SentAcknowledgements 0
scalar RSUExampleCatania.node[43].nic.mac1609_4 SNIRLostPackets 9
scalar RSUExampleCatania.node[43].nic.mac1609_4 RXTXLostPackets 0
scalar RSUExampleCatania.node[43].nic.mac1609_4 TotalLostPackets 9
scalar RSUExampleCatania.node[43].nic.mac1609_4 DroppedPacketsInMac 0
scalar RSUExampleCatania.node[43].nic.mac1609_4 TooLittleTime 0
scalar RSUExampleCatania.node[43].nic.mac1609_4 TimesIntoBackoff 1
scalar RSUExampleCatania.node[43].nic.mac1609_4 SlotsBackoff 2
scalar RSUExampleCatania.node[43].nic.mac1609_4 NumInternalContention 0
scalar RSUExampleCatania.node[43].nic.mac1609_4 totalBusyTime 0.008585
scalar RSUExampleCatania.node[43].veinsmobility startTime 56
scalar RSUExampleCatania.node[43].veinsmobility totalTime 305
scalar RSUExampleCatania.node[43].veinsmobility stopTime 362
scalar RSUExampleCatania.node[43].veinsmobility minSpeed 0.00064202977471935
scalar RSUExampleCatania.node[43].veinsmobility maxSpeed 15.993708337704
scalar RSUExampleCatania.node[43].veinsmobility totalDistance 3131.6575402031
scalar RSUExampleCatania.node[43].veinsmobility totalCO2Emission 887.58239892027
scalar RSUExampleCatania.node[45].appl generatedWSMs 1
scalar RSUExampleCatania.node[45].appl receivedWSMs 29
scalar RSUExampleCatania.node[45].appl generatedBSMs 0
scalar RSUExampleCatania.node[45].appl receivedBSMs 0
scalar RSUExampleCatania.node[45].appl generatedWSAs 0
scalar RSUExampleCatania.node[45].appl receivedWSAs 0
scalar RSUExampleCatania.node[45].nic.phy80211p busyTime 2.5101639344262e-05
scalar RSUExampleCatania.node[45].nic.mac1609_4 ReceivedUnicastPackets 0
scalar RSUExampleCatania.node[45].nic.mac1609_4 ReceivedBroadcasts 29
scalar RSUExampleCatania.node[45].nic.mac1609_4 SentPackets 1
scalar RSUExampleCatania.node[45].nic.mac1609_4 SentAcknowledgements 0
scalar RSUExampleCatania.node[45].nic.mac1609_4 SNIRLostPackets 4
scalar RSUExampleCatania.node[45].nic.mac1609_4 RXTXLostPackets 0
scalar RSUExampleCatania.node[45].nic.mac1609_4 TotalLostPackets 4
scalar RSUExampleCatania.node[45].nic.mac1609_4 DroppedPacketsInMac 0
scalar RSUExampleCatania.node[45].nic.mac1609_4 TooLittleTime 0
scalar RSUExampleCatania.node[45].nic.mac1609_4 TimesIntoBackoff 1
scalar RSUExampleCatania.node[45].nic.mac1609_4 SlotsBackoff 2
scalar RSUExampleCatania.node[45].nic.mac1609_4 NumInternalContention 0
scalar RSUExampleCatania.node[45].nic.mac1609_4 totalBusyTime 0.007889
scalar RSUExampleCatania.node[45].veinsmobility startTime 58
scalar RSUExampleCatania.node[45].veinsmobility totalTime 304
scalar RSUExampleCatania.node[45].veinsmobility stopTime 363
scalar RSUExampleCatania.node[45].veinsmobility minSpeed 0.0014265935867638
scalar RSUExampleCatania.node[45].veinsmobility maxSpeed 15.999839340569
scalar RSUExampleCatania.node[45].veinsmobility totalDistance 3118.6201598591
scalar RSUExampleCatania.node[45].veinsmobility totalCO2Emission 856.82606423304
scalar RSUExampleCatania.node[47].appl generatedWSMs 1
scalar RSUExampleCatania.node[47].appl receivedWSMs 32
scalar RSUExampleCatania.node[47].appl generatedBSMs 0
scalar RSUExampleCatania.node[47].appl receivedBSMs 0
scalar RSUExampleCatania.node[47].appl generatedWSAs 0
scalar RSUExampleCatania.node[47].appl receivedWSAs 0
scalar RSUExampleCatania.node[47].nic.phy80211p busyTime 3.1084967320261e-05
scalar RSUExampleCatania.node[47].nic.mac1609_4 ReceivedUnicastPackets 0
scalar RSUExampleCatania.node[47].nic.mac1609_4 ReceivedBroadcasts 32
scalar RSUExampleCatania.node[47].nic.mac1609_4 SentPackets 1
scalar RSUExampleCatania.node[47].nic.mac1609_4 SentAcknowledgements 0
scalar RSUExampleCatania.node[47].nic.mac1609_4 SNIRLostPackets 9
scalar RSUExampleCatania.node[47].nic.mac1609_4 RXTXLostPackets 0
scalar RSUExampleCatania.node[47].nic.mac1609_4 TotalLostPackets 9
scalar RSUExampleCatania.node[47].nic.mac1609_4 DroppedPacketsInMac 0
scalar RSUExampleCatania.node[47].nic.mac1609_4 TooLittleTime 0
scalar RSUExampleCatania.node[47].nic.mac1609_4 TimesIntoBackoff 1
scalar RSUExampleCatania.node[47].nic.mac1609_4 SlotsBackoff 1
scalar RSUExampleCatania.node[47].nic.mac1609_4 NumInternalContention 0
scalar RSUExampleCatania.node[47].nic.mac1609_4 totalBusyTime 0.009745
scalar RSUExampleCatania.node[47].veinsmobility startTime 61
scalar RSUExampleCatania.node[47].veinsmobility totalTime 305
scalar RSUExampleCatania.node[47].veinsmobility stopTime 367
scalar RSUExampleCatania.node[47].veinsmobility minSpeed 0.0034183273465165
scalar RSUExampleCatania.node[47].veinsmobility maxSpeed 15.993391729449
scalar RSUExampleCatania.node[47].veinsmobility totalDistance 3128.2559197615
scalar RSUExampleCatania.node[47].veinsmobility totalCO2Emission 827.32158998121
scalar RSUExampleCatania.node[23].appl generatedWSMs 1
scalar RSUExampleCatania.node[23].appl receivedWSMs 45
scalar RSUExampleCatania.node[23].appl generatedBSMs 0
scalar RSUExampleCatania.node[23].appl receivedBSMs 0
scalar RSUExampleCatania.node[23].appl genera