version 2
run WithBeaconing-0-20200806-15:56:41-71640
attr configname WithBeaconing
attr datetime 20200806-15:56:41
attr experiment WithBeaconing
attr inifile omnetpp.ini
attr iterationvars ""
attr iterationvarsf ""
attr measurement ""
attr network RSUExampleCatania
attr processid 71640
attr repetition 0
attr replication #0
attr resultdir results
attr runnumber 0
attr seedset 0
param *.rsu[*].appl.sendBeacons true
param *.node[*].appl.sendBeacons true
param *.playgroundSizeX 3000m
param *.playgroundSizeY 3000m
param *.playgroundSizeZ 50m
param *.annotations.draw true
param *.obstacles.obstacles "xmldoc(\"config.xml\", \"//AnalogueModel[@type='SimpleObstacleShadowing']/obstacles\")"
param *.manager.updateInterval 1s
param *.manager.host "\"localhost\""
param *.manager.port 9999
param *.manager.autoShutdown true
param *.manager.launchConfig "xmldoc(\"catania.launchd.xml\")"
param *.rsu[0].mobility.x 2000
param *.rsu[0].mobility.y 2000
param *.rsu[0].mobility.z 3
param *.rsu[*].applType "\"TraCIDemoRSU11p\""
param *.rsu[*].appl.headerLength "80 bit"
param *.rsu[*].appl.sendBeacons false
param *.rsu[*].appl.dataOnSch false
param *.rsu[*].appl.beaconInterval 1s
param *.rsu[*].appl.beaconUserPriority 7
param *.rsu[*].appl.dataUserPriority 5
param *.rsu[*].nic.phy80211p.antennaOffsetZ "0 m"
param *.connectionManager.sendDirect true
param *.connectionManager.maxInterfDist 2600m
param *.connectionManager.drawMaxIntfDist false
param *.**.nic.mac1609_4.useServiceChannel false
param *.**.nic.mac1609_4.txPower 20mW
param *.**.nic.mac1609_4.bitrate 6Mbps
param *.**.nic.phy80211p.minPowerLevel -110dBm
param *.**.nic.phy80211p.useNoiseFloor true
param *.**.nic.phy80211p.noiseFloor -98dBm
param *.**.nic.phy80211p.decider "xmldoc(\"config.xml\")"
param *.**.nic.phy80211p.analogueModels "xmldoc(\"config.xml\")"
param *.**.nic.phy80211p.usePropagationDelay true
param *.**.nic.phy80211p.antenna "xmldoc(\"antenna.xml\", \"/root/Antenna[@id='monopole']\")"
param *.node[*].nic.phy80211p.antennaOffsetY "0 m"
param *.node[*].nic.phy80211p.antennaOffsetZ "1000 m"
param *.node[*].applType "\"TraCIDemo11p\""
param *.node[*].appl.headerLength "80 bit"
param *.node[*].appl.sendBeacons false
param *.node[*].appl.dataOnSch false
param *.node[*].appl.beaconInterval 1s
param *.node[*].veinsmobility.x 0
param *.node[*].veinsmobility.y 0
param *.node[*].veinsmobility.z 0
param *.node[*].veinsmobility.setHostSpeed false
param *.node[*0].veinsmobility.accidentCount 1
param *.node[*0].veinsmobility.accidentStart 73s
param *.node[*0].veinsmobility.accidentDuration 50s

vector 0 RSUExampleCatania.node[0].veinsmobility posx ETV
vector 1 RSUExampleCatania.node[0].veinsmobility posy ETV
vector 2 RSUExampleCatania.node[1].veinsmobility posx ETV
vector 3 RSUExampleCatania.node[1].veinsmobility posy ETV
vector 4 RSUExampleCatania.node[0].veinsmobility speed ETV
vector 5 RSUExampleCatania.node[1].veinsmobility speed ETV
vector 6 RSUExampleCatania.node[2].veinsmobility posx ETV
vector 7 RSUExampleCatania.node[2].veinsmobility posy ETV
vector 8 RSUExampleCatania.node[3].veinsmobility posx ETV
vector 9 RSUExampleCatania.node[3].veinsmobility posy ETV
vector 10 RSUExampleCatania.node[0].veinsmobility acceleration ETV
vector 11 RSUExampleCatania.node[0].veinsmobility co2emission ETV
vector 12 RSUExampleCatania.node[1].veinsmobility acceleration ETV
vector 13 RSUExampleCatania.node[1].veinsmobility co2emission ETV
vector 14 RSUExampleCatania.node[2].veinsmobility speed ETV
vector 15 RSUExampleCatania.node[3].veinsmobility speed ETV
vector 16 RSUExampleCatania.node[4].veinsmobility posx ETV
vector 17 RSUExampleCatania.node[4].veinsmobility posy ETV
vector 18 RSUExampleCatania.node[2].veinsmobility acceleration ETV
vector 19 RSUExampleCatania.node[2].veinsmobility co2emission ETV
vector 20 RSUExampleCatania.node[3].veinsmobility acceleration ETV
vector 21 RSUExampleCatania.node[3].veinsmobility co2emission ETV
vector 22 RSUExampleCatania.node[5].veinsmobility posx ETV
vector 23 RSUExampleCatania.node[5].veinsmobility posy ETV
vector 24 RSUExampleCatania.node[4].veinsmobility speed ETV
vector 25 RSUExampleCatania.node[4].veinsmobility acceleration ETV
vector 26 RSUExampleCatania.node[4].veinsmobility co2emission ETV
vector 27 RSUExampleCatania.node[5].veinsmobility speed ETV
vector 28 RSUExampleCatania.node[6].veinsmobility posx ETV
vector 29 RSUExampleCatania.node[6].veinsmobility posy ETV
vector 30 RSUExampleCatania.node[7].veinsmobility posx ETV
vector 31 RSUExampleCatania.node[7].veinsmobility posy ETV
vector 32 RSUExampleCatania.node[5].veinsmobility acceleration ETV
vector 33 RSUExampleCatania.node[5].veinsmobility co2emission ETV
vector 34 RSUExampleCatania.node[6].veinsmobility speed ETV
vector 35 RSUExampleCatania.node[7].veinsmobility speed ETV
vector 36 RSUExampleCatania.node[8].veinsmobility posx ETV
vector 37 RSUExampleCatania.node[8].veinsmobility posy ETV
vector 38 RSUExampleCatania.node[6].veinsmobility acceleration ETV
vector 39 RSUExampleCatania.node[6].veinsmobility co2emission ETV
vector 40 RSUExampleCatania.node[7].veinsmobility acceleration ETV
vector 41 RSUExampleCatania.node[7].veinsmobility co2emission ETV
vector 42 RSUExampleCatania.node[9].veinsmobility posx ETV
vector 43 RSUExampleCatania.node[9].veinsmobility posy ETV
vector 44 RSUExampleCatania.node[8].veinsmobility speed ETV
vector 45 RSUExampleCatania.node[8].veinsmobility acceleration ETV
vector 46 RSUExampleCatania.node[8].veinsmobility co2emission ETV
vector 47 RSUExampleCatania.node[9].veinsmobility speed ETV
vector 48 RSUExampleCatania.node[10].veinsmobility posx ETV
vector 49 RSUExampleCatania.node[10].veinsmobility posy ETV
vector 50 RSUExampleCatania.node[11].veinsmobility posx ETV
vector 51 RSUExampleCatania.node[11].veinsmobility posy ETV
vector 52 RSUExampleCatania.node[9].veinsmobility acceleration ETV
vector 53 RSUExampleCatania.node[9].veinsmobility co2emission ETV
vector 54 RSUExampleCatania.node[10].veinsmobility speed ETV
vector 55 RSUExampleCatania.node[11].veinsmobility speed ETV
vector 56 RSUExampleCatania.node[12].veinsmobility posx ETV
vector 57 RSUExampleCatania.node[12].veinsmobility posy ETV
vector 58 RSUExampleCatania.node[10].veinsmobility acceleration ETV
vector 59 RSUExampleCatania.node[10].veinsmobility co2emission ETV
vector 60 RSUExampleCatania.node[11].veinsmobility acceleration ETV
vector 61 RSUExampleCatania.node[11].veinsmobility co2emission ETV
vector 62 RSUExampleCatania.node[13].veinsmobility posx ETV
vector 63 RSUExampleCatania.node[13].veinsmobility posy ETV
vector 64 RSUExampleCatania.node[12].veinsmobility speed ETV
vector 65 RSUExampleCatania.node[12].veinsmobility acceleration ETV
vector 66 RSUExampleCatania.node[12].veinsmobility co2emission ETV
vector 67 RSUExampleCatania.node[13].veinsmobility speed ETV
vector 68 RSUExampleCatania.node[14].veinsmobility posx ETV
vector 69 RSUExampleCatania.node[14].veinsmobility posy ETV
vector 70 RSUExampleCatania.node[13].veinsmobility acceleration ETV
vector 71 RSUExampleCatania.node[13].veinsmobility co2emission ETV
vector 72 RSUExampleCatania.node[15].veinsmobility posx ETV
vector 73 RSUExampleCatania.node[15].veinsmobility posy ETV
vector 74 RSUExampleCatania.node[14].veinsmobility speed ETV
vector 75 RSUExampleCatania.node[16].veinsmobility posx ETV
vector 76 RSUExampleCatania.node[16].veinsmobility posy ETV
vector 77 RSUExampleCatania.node[14].veinsmobility acceleration ETV
vector 78 RSUExampleCatania.node[14].veinsmobility co2emission ETV
vector 79 RSUExampleCatania.node[15].veinsmobility speed ETV
vector 80 RSUExampleCatania.node[15].veinsmobility acceleration ETV
vector 81 RSUExampleCatania.node[15].veinsmobility co2emission ETV
vector 82 RSUExampleCatania.node[16].veinsmobility speed ETV
vector 83 RSUExampleCatania.node[17].veinsmobility posx ETV
vector 84 RSUExampleCatania.node[17].veinsmobility posy ETV
vector 85 RSUExampleCatania.node[18].veinsmobility posx ETV
vector 86 RSUExampleCatania.node[18].veinsmobility posy ETV
vector 87 RSUExampleCatania.node[16].veinsmobility acceleration ETV
vector 88 RSUExampleCatania.node[16].veinsmobility co2emission ETV
vector 89 RSUExampleCatania.node[17].veinsmobility speed ETV
vector 90 RSUExampleCatania.node[18].veinsmobility speed ETV
vector 91 RSUExampleCatania.node[19].veinsmobility posx ETV
vector 92 RSUExampleCatania.node[19].veinsmobility posy ETV
vector 93 RSUExampleCatania.node[17].veinsmobility acceleration ETV
vector 94 RSUExampleCatania.node[17].veinsmobility co2emission ETV
vector 95 RSUExampleCatania.node[18].veinsmobility acceleration ETV
vector 96 RSUExampleCatania.node[18].veinsmobility co2emission ETV
vector 97 RSUExampleCatania.node[20].veinsmobility posx ETV
vector 98 RSUExampleCatania.node[20].veinsmobility posy ETV
vector 99 RSUExampleCatania.node[19].veinsmobility speed ETV
vector 100 RSUExampleCatania.node[19].veinsmobility acceleration ETV
vector 101 RSUExampleCatania.node[19].veinsmobility co2emission ETV
vector 102 RSUExampleCatania.node[20].veinsmobility speed ETV
vector 103 RSUExampleCatania.node[21].veinsmobility posx ETV
vector 104 RSUExampleCatania.node[21].veinsmobility posy ETV
vector 105 RSUExampleCatania.node[20].veinsmobility acceleration ETV
vector 106 RSUExampleCatania.node[20].veinsmobility co2emission ETV
vector 107 RSUExampleCatania.node[22].veinsmobility posx ETV
vector 108 RSUExampleCatania.node[22].veinsmobility posy ETV
vector 109 RSUExampleCatania.node[21].veinsmobility speed ETV
vector 110 RSUExampleCatania.node[21].veinsmobility acceleration ETV
vector 111 RSUExampleCatania.node[21].veinsmobility co2emission ETV
vector 112 RSUExampleCatania.node[22].veinsmobility speed ETV
vector 113 RSUExampleCatania.node[23].veinsmobility posx ETV
vector 114 RSUExampleCatania.node[23].veinsmobility posy ETV
vector 115 RSUExampleCatania.node[22].veinsmobility acceleration ETV
vector 116 RSUExampleCatania.node[22].veinsmobility co2emission ETV
vector 117 RSUExampleCatania.node[24].veinsmobility posx ETV
vector 118 RSUExampleCatania.node[24].veinsmobility posy ETV
vector 119 RSUExampleCatania.node[23].veinsmobility speed ETV
vector 120 RSUExampleCatania.node[23].veinsmobility acceleration ETV
vector 121 RSUExampleCatania.node[23].veinsmobility co2emission ETV
vector 122 RSUExampleCatania.node[24].veinsmobility speed ETV
vector 123 RSUExampleCatania.node[25].veinsmobility posx ETV
vector 124 RSUExampleCatania.node[25].veinsmobility posy ETV
vector 125 RSUExampleCatania.node[26].veinsmobility posx ETV
vector 126 RSUExampleCatania.node[26].veinsmobility posy ETV
vector 127 RSUExampleCatania.node[24].veinsmobility acceleration ETV
vector 128 RSUExampleCatania.node[24].veinsmobility co2emission ETV
vector 129 RSUExampleCatania.node[25].veinsmobility speed ETV
vector 130 RSUExampleCatania.node[26].veinsmobility speed ETV
vector 131 RSUExampleCatania.node[27].veinsmobility posx ETV
vector 132 RSUExampleCatania.node[27].veinsmobility posy ETV
vector 133 RSUExampleCatania.node[25].veinsmobility acceleration ETV
vector 134 RSUExampleCatania.node[25].veinsmobility co2emission ETV
vector 135 RSUExampleCatania.node[26].veinsmobility acceleration ETV
vector 136 RSUExampleCatania.node[26].veinsmobility co2emission ETV
vector 137 RSUExampleCatania.node[28].veinsmobility posx ETV
vector 138 RSUExampleCatania.node[28].veinsmobility posy ETV
vector 139 RSUExampleCatania.node[27].veinsmobility speed ETV
vector 140 RSUExampleCatania.node[27].veinsmobility acceleration ETV
vector 141 RSUExampleCatania.node[27].veinsmobility co2emission ETV
vector 142 RSUExampleCatania.node[28].veinsmobility speed ETV
vector 143 RSUExampleCatania.node[29].veinsmobility posx ETV
vector 144 RSUExampleCatania.node[29].veinsmobility posy ETV
vector 145 RSUExampleCatania.node[30].veinsmobility posx ETV
vector 146 RSUExampleCatania.node[30].veinsmobility posy ETV
vector 147 RSUExampleCatania.node[28].veinsmobility acceleration ETV
vector 148 RSUExampleCatania.node[28].veinsmobility co2emission ETV
vector 149 RSUExampleCatania.node[29].veinsmobility speed ETV
vector 150 RSUExampleCatania.node[30].veinsmobility speed ETV
vector 151 RSUExampleCatania.node[31].veinsmobility posx ETV
vector 152 RSUExampleCatania.node[31].veinsmobility posy ETV
vector 153 RSUExampleCatania.node[29].veinsmobility acceleration ETV
vector 154 RSUExampleCatania.node[29].veinsmobility co2emission ETV
vector 155 RSUExampleCatania.node[30].veinsmobility acceleration ETV
vector 156 RSUExampleCatania.node[30].veinsmobility co2emission ETV
vector 157 RSUExampleCatania.node[32].veinsmobility posx ETV
vector 158 RSUExampleCatania.node[32].veinsmobility posy ETV
vector 159 RSUExampleCatania.node[31].veinsmobility speed ETV
vector 160 RSUExampleCatania.node[31].veinsmobility acceleration ETV
vector 161 RSUExampleCatania.node[31].veinsmobility co2emission ETV
vector 162 RSUExampleCatania.node[32].veinsmobility speed ETV
vector 163 RSUExampleCatania.node[33].veinsmobility posx ETV
vector 164 RSUExampleCatania.node[33].veinsmobility posy ETV
vector 165 RSUExampleCatania.node[34].veinsmobility posx ETV
vector 166 RSUExampleCatania.node[34].veinsmobility posy ETV
vector 167 RSUExampleCatania.node[32].veinsmobility acceleration ETV
vector 168 RSUExampleCatania.node[32].veinsmobility co2emission ETV
vector 169 RSUExampleCatania.node[33].veinsmobility speed ETV
vector 170 RSUExampleCatania.node[34].veinsmobility speed ETV
vector 171 RSUExampleCatania.node[33].veinsmobility acceleration ETV
vector 172 RSUExampleCatania.node[33].veinsmobility co2emission ETV
vector 173 RSUExampleCatania.node[34].veinsmobility acceleration ETV
vector 174 RSUExampleCatania.node[34].veinsmobility co2emission ETV
vector 175 RSUExampleCatania.node[35].veinsmobility posx ETV
vector 176 RSUExampleCatania.node[35].veinsmobility posy ETV
vector 177 RSUExampleCatania.node[36].veinsmobility posx ETV
vector 178 RSUExampleCatania.node[36].veinsmobility posy ETV
vector 179 RSUExampleCatania.node[35].veinsmobility speed ETV
vector 180 RSUExampleCatania.node[36].veinsmobility speed ETV
vector 181 RSUExampleCatania.node[37].veinsmobility posx ETV
vector 182 RSUExampleCatania.node[37].veinsmobility posy ETV
vector 183 RSUExampleCatania.node[38].veinsmobility posx ETV
vector 184 RSUExampleCatania.node[38].veinsmobility posy ETV
vector 185 RSUExampleCatania.node[35].veinsmobility acceleration ETV
vector 186 RSUExampleCatania.node[35].veinsmobility co2emission ETV
vector 187 RSUExampleCatania.node[36].veinsmobility acceleration ETV
vector 188 RSUExampleCatania.node[36].veinsmobility co2emission ETV
vector 189 RSUExampleCatania.node[37].veinsmobility speed ETV
vector 190 RSUExampleCatania.node[38].veinsmobility speed ETV
vector 191 RSUExampleCatania.node[39].veinsmobility posx ETV
vector 192 RSUExampleCatania.node[39].veinsmobility posy ETV
vector 193 RSUExampleCatania.node[37].veinsmobility acceleration ETV
vector 194 RSUExampleCatania.node[37].veinsmobility co2emission ETV
vector 195 RSUExampleCatania.node[38].veinsmobility acceleration ETV
vector 196 RSUExampleCatania.node[38].veinsmobility co2emission ETV
vector 197 RSUExampleCatania.node[40].veinsmobility posx ETV
vector 198 RSUExampleCatania.node[40].veinsmobility posy ETV
vector 199 RSUExampleCatania.node[39].veinsmobility speed ETV
vector 200 RSUExampleCatania.node[39].veinsmobility acceleration ETV
vector 201 RSUExampleCatania.node[39].veinsmobility co2emission ETV
vector 202 RSUExampleCatania.node[40].veinsmobility speed ETV
vector 203 RSUExampleCatania.node[41].veinsmobility posx ETV
vector 204 RSUExampleCatania.node[41].veinsmobility posy ETV
vector 205 RSUExampleCatania.node[42].veinsmobility posx ETV
vector 206 RSUExampleCatania.node[42].veinsmobility posy ETV
vector 207 RSUExampleCatania.node[40].veinsmobility acceleration ETV
vector 208 RSUExampleCatania.node[40].veinsmobility co2emission ETV
vector 209 RSUExampleCatania.node[41].veinsmobility speed ETV
vector 210 RSUExampleCatania.node[42].veinsmobility speed ETV
vector 211 RSUExampleCatania.node[41].veinsmobility acceleration ETV
vector 212 RSUExampleCatania.node[41].veinsmobility co2emission ETV
vector 213 RSUExampleCatania.node[42].veinsmobility acceleration ETV
vector 214 RSUExampleCatania.node[42].veinsmobility co2emission ETV
vector 215 RSUExampleCatania.node[43].veinsmobility posx ETV
vector 216 RSUExampleCatania.node[43].veinsmobility posy ETV
vector 217 RSUExampleCatania.node[44].veinsmobility posx ETV
vector 218 RSUExampleCatania.node[44].veinsmobility posy ETV
vector 219 RSUExampleCatania.node[43].veinsmobility speed ETV
vector 220 RSUExampleCatania.node[44].veinsmobility speed ETV
vector 221 RSUExampleCatania.node[45].veinsmobility posx ETV
vector 222 RSUExampleCatania.node[45].veinsmobility posy ETV
vector 223 RSUExampleCatania.node[46].veinsmobility posx ETV
vector 224 RSUExampleCatania.node[46].veinsmobility posy ETV
vector 225 RSUExampleCatania.node[43].veinsmobility acceleration ETV
vector 226 RSUExampleCatania.node[43].veinsmobility co2emission ETV
vector 227 RSUExampleCatania.node[44].veinsmobility acceleration ETV
vector 228 RSUExampleCatania.node[44].veinsmobility co2emission ETV
vector 229 RSUExampleCatania.node[45].veinsmobility speed ETV
vector 230 RSUExampleCatania.node[46].veinsmobility speed ETV
vector 231 RSUExampleCatania.node[45].veinsmobility acceleration ETV
vector 232 RSUExampleCatania.node[45].veinsmobility co2emission ETV
vector 233 RSUExampleCatania.node[46].veinsmobility acceleration ETV
vector 234 RSUExampleCatania.node[46].veinsmobility co2emission ETV
vector 235 RSUExampleCatania.node[47].veinsmobility posx ETV
vector 236 RSUExampleCatania.node[47].veinsmobility posy ETV
vector 237 RSUExampleCatania.node[48].veinsmobility posx ETV
vector 238 RSUExampleCatania.node[48].veinsmobility posy ETV
vector 239 RSUExampleCatania.node[47].veinsmobility speed ETV
vector 240 RSUExampleCatania.node[48].veinsmobility speed ETV
vector 241 RSUExampleCatania.node[49].veinsmobility posx ETV
vector 242 RSUExampleCatania.node[49].veinsmobility posy ETV
vector 243 RSUExampleCatania.node[47].veinsmobility acceleration ETV
vector 244 RSUExampleCatania.node[47].veinsmobility co2emission ETV
vector 245 RSUExampleCatania.node[48].veinsmobility acceleration ETV
vector 246 RSUExampleCatania.node[48].veinsmobility co2emission ETV
vector 247 RSUExampleCatania.node[50].veinsmobility posx ETV
vector 248 RSUExampleCatania.node[50].veinsmobility posy ETV
vector 249 RSUExampleCatania.node[49].veinsmobility speed ETV
vector 250 RSUExampleCatania.node[49].veinsmobility acceleration ETV
vector 251 RSUExampleCatania.node[49].veinsmobility co2emission ETV
vector 252 RSUExampleCatania.node[50].veinsmobility speed ETV
vector 253 RSUExampleCatania.node[51].veinsmobility posx ETV
vector 254 RSUExampleCatania.node[51].veinsmobility posy ETV
vector 255 RSUExampleCatania.node[52].veinsmobility posx ETV
vector 256 RSUExampleCatania.node[52].veinsmobility posy ETV
vector 257 RSUExampleCatania.node[50].veinsmobility acceleration ETV
vector 258 RSUExampleCatania.node[50].veinsmobility co2emission ETV
vector 259 RSUExampleCatania.node[51].veinsmobility speed ETV
vector 260 RSUExampleCatania.node[52].veinsmobility speed ETV
vector 261 RSUExampleCatania.node[51].veinsmobility acceleration ETV
vector 262 RSUExampleCatania.node[51].veinsmobility co2emission ETV
vector 263 RSUExampleCatania.node[52].veinsmobility acceleration ETV
vector 264 RSUExampleCatania.node[52].veinsmobility co2emission ETV
vector 265 RSUExampleCatania.node[53].veinsmobility posx ETV
vector 266 RSUExampleCatania.node[53].veinsmobility posy ETV
vector 267 RSUExampleCatania.node[54].veinsmobility posx ETV
vector 268 RSUExampleCatania.node[54].veinsmobility posy ETV
vector 269 RSUExampleCatania.node[53].veinsmobility speed ETV
vector 270 RSUExampleCatania.node[54].veinsmobility speed ETV
vector 271 RSUExampleCatania.node[55].veinsmobility posx ETV
vector 272 RSUExampleCatania.node[55].veinsmobility posy ETV
vector 273 RSUExampleCatania.node[53].veinsmobility acceleration ETV
vector 274 RSUExampleCatania.node[53].veinsmobility co2emission ETV
vector 275 RSUExampleCatania.node[54].veinsmobility acceleration ETV
vector 276 RSUExampleCatania.node[54].veinsmobility co2emission ETV
vector 277 RSUExampleCatania.node[56].veinsmobility posx ETV
vector 278 RSUExampleCatania.node[56].veinsmobility posy ETV
vector 279 RSUExampleCatania.node[55].veinsmobility speed ETV
vector 280 RSUExampleCatania.node[57].veinsmobility posx ETV
vector 281 RSUExampleCatania.node[57].veinsmobility posy ETV
vector 282 RSUExampleCatania.node[55].veinsmobility acceleration ETV
vector 283 RSUExampleCatania.node[55].veinsmobility co2emission ETV
vector 284 RSUExampleCatania.node[56].veinsmobility speed ETV
vector 285 RSUExampleCatania.node[58].veinsmobility posx ETV
vector 286 RSUExampleCatania.node[58].veinsmobility posy ETV
vector 287 RSUExampleCatania.node[56].veinsmobility acceleration ETV
vector 288 RSUExampleCatania.node[56].veinsmobility co2emission ETV
vector 289 RSUExampleCatania.node[57].veinsmobility speed ETV
vector 290 RSUExampleCatania.node[57].veinsmobility acceleration ETV
vector 291 RSUExampleCatania.node[57].veinsmobility co2emission ETV
vector 292 RSUExampleCatania.node[58].veinsmobility speed ETV
vector 293 RSUExampleCatania.node[59].veinsmobility posx ETV
vector 294 RSUExampleCatania.node[59].veinsmobility posy ETV
vector 295 RSUExampleCatania.node[58].veinsmobility acceleration ETV
vector 296 RSUExampleCatania.node[58].veinsmobility co2emission ETV
vector 297 RSUExampleCatania.node[60].veinsmobility posx ETV
vector 298 RSUExampleCatania.node[60].veinsmobility posy ETV
vector 299 RSUExampleCatania.node[59].veinsmobility speed ETV
vector 300 RSUExampleCatania.node[59].veinsmobility acceleration ETV
vector 301 RSUExampleCatania.node[59].veinsmobility co2emission ETV
vector 302 RSUExampleCatania.node[60].veinsmobility speed ETV
vector 303 RSUExampleCatania.node[61].veinsmobility posx ETV
vector 304 RSUExampleCatania.node[61].veinsmobility posy ETV
vector 305 RSUExampleCatania.node[62].veinsmobility posx ETV
vector 306 RSUExampleCatania.node[62].veinsmobility posy ETV
vector 307 RSUExampleCatania.node[60].veinsmobility acceleration ETV
vector 308 RSUExampleCatania.node[60].veinsmobility co2emission ETV
vector 309 RSUExampleCatania.node[61].veinsmobility speed ETV
vector 310 RSUExampleCatania.node[62].veinsmobility speed ETV
vector 311 RSUExampleCatania.node[61].veinsmobility acceleration ETV
vector 312 RSUExampleCatania.node[61].veinsmobility co2emission ETV
vector 313 RSUExampleCatania.node[62].veinsmobility acceleration ETV
vector 314 RSUExampleCatania.node[62].veinsmobility co2emission ETV
vector 315 RSUExampleCatania.node[63].veinsmobility posx ETV
vector 316 RSUExampleCatania.node[63].veinsmobility posy ETV
vector 317 RSUExampleCatania.node[64].veinsmobility posx ETV
vector 318 RSUExampleCatania.node[64].veinsmobility posy ETV
vector 319 RSUExampleCatania.node[63].veinsmobility speed ETV
vector 320 RSUExampleCatania.node[64].veinsmobility speed ETV
vector 321 RSUExampleCatania.node[65].veinsmobility posx ETV
vector 322 RSUExampleCatania.node[65].veinsmobility posy ETV
vector 323 RSUExampleCatania.node[66].veinsmobility posx ETV
vector 324 RSUExampleCatania.node[66].veinsmobility posy ETV
vector 325 RSUExampleCatania.node[63].veinsmobility acceleration ETV
vector 326 RSUExampleCatania.node[63].veinsmobility co2emission ETV
vector 327 RSUExampleCatania.node[64].veinsmobility acceleration ETV
vector 328 RSUExampleCatania.node[64].veinsmobility co2emission ETV
vector 329 RSUExampleCatania.node[65].veinsmobility speed ETV
vector 330 RSUExampleCatania.node[66].veinsmobility speed ETV
vector 331 RSUExampleCatania.node[65].veinsmobility acceleration ETV
vector 332 RSUExampleCatania.node[65].veinsmobility co2emission ETV
vector 333 RSUExampleCatania.node[66].veinsmobility acceleration ETV
vector 334 RSUExampleCatania.node[66].veinsmobility co2emission ETV
vector 335 RSUExampleCatania.node[67].veinsmobility posx ETV
vector 336 RSUExampleCatania.node[67].veinsmobility posy ETV
vector 337 RSUExampleCatania.node[67].veinsmobility speed ETV
vector 338 RSUExampleCatania.node[67].veinsmobility acceleration ETV
vector 339 RSUExampleCatania.node[67].veinsmobility co2emission ETV
vector 340 RSUExampleCatania.node[68].veinsmobility posx ETV
vector 341 RSUExampleCatania.node[68].veinsmobility posy ETV
vector 342 RSUExampleCatania.node[68].veinsmobility speed ETV
vector 343 RSUExampleCatania.node[68].veinsmobility acceleration ETV
vector 344 RSUExampleCatania.node[68].veinsmobility co2emission ETV
vector 345 RSUExampleCatania.node[69].veinsmobility posx ETV
vector 346 RSUExampleCatania.node[69].veinsmobility posy ETV
vector 347 RSUExampleCatania.node[69].veinsmobility speed ETV
vector 348 RSUExampleCatania.node[69].veinsmobility acceleration ETV
vector 349 RSUExampleCatania.node[69].veinsmobility co2emission ETV
0	11	1	2103.2782741811
0	63	2	2103.2782741811
0	116	3	2101.2190368124
0	256	4	2097.8552743555
0	397	5	2092.8268294906
0	600	6	2085.1968076009
0	874	7	2075.358353116
0	1153	8	2063.1090821096
0	1608	9	2048.775759288
0	2062	10	2033.2185460962
0	2630	11	2017.9115179116
0	3320	12	2002.7916992143
0	4011	13	1987.9344713029
0	4978	14	1973.1518489657
0	5954	15	1957.3655633811
0	7086	16	1942.6533911697
0	8379	17	1927.8220204747
0	9629	18	1911.8600452417
0	11046	19	1897.1177720657
0	12604	20	1881.7092890118
0	14360	21	1865.9822165632
0	16055	22	1850.0452920424
0	18181	23	1835.2729956952
0	20288	24	1820.5217222524
0	22546	25	1805.1068998753
0	25133	26	1789.3486666597
0	27618	27	1774.1805977285
0	30283	28	1758.5987633934
0	33176	29	1743.5352127883
0	35991	30	1728.6333127507
0	39113	31	1713.2211527681
0	42333	32	1698.9480582065
0	45573	33	1685.1954457948
0	49357	34	1671.3668466778
0	53059	35	1656.9186031891
0	57156	36	1642.8714237107
0	61405	37	1629.5656512988
0	65805	38	1615.6967842488
0	70688	39	1601.9794646222
0	75533	40	1587.8676930999
0	80695	41	1574.1105775916
0	86023	42	1560.123611167
0	91457	43	1545.8703023624
0	97520	44	1532.4494513853
0	103494	45	1517.7425160369
0	109532	46	1502.6793808341
0	116203	47	1487.508936778
0	122875	48	1473.0957834436
0	130172	49	1457.9187837453
0	137436	50	1445.3435483381
0	145057	51	1430.5811203217
0	152953	52	1416.0686311442
0	160953	53	1400.7271118312
0	169671	54	1386.2758328006
0	178285	55	1371.0757182579
0	186904	56	1356.4574346634
0	196304	57	1341.2343803455
0	205739	58	1326.8563040224
0	215964	59	1311.9629347
0	226334	60	1297.4964589291
0	236729	61	1282.4048034439
0	247863	62	1268.5836401235
0	259118	63	1254.7278197096
0	270778	64	1242.5651934571
0	282693	65	1234.0469858477
0	294763	66	1229.4021911671
0	307788	67	1223.0838600672
0	320690	68	1215.4979163001
0	333651	69	1206.5862509128
0	347684	70	1196.3181271568
0	361617	71	1184.710461335
0	376002	72	1171.7368348822
0	390813	73	1158.0365558074
0	406218	74	1148.3248153672
0	421858	75	1142.8920059713
0	437712	76	1141.7381276196
0	454131	77	1141.7381276196
0	471142	78	1141.7381276196
0	488147	79	1141.7381276196
0	506157	80	1141.7381276196
0	524220	81	1141.7381276196
0	542472	82	1141.7381276196
0	561686	83	1141.7381276196
0	580950	84	1141.7381276196
0	601219	85	1141.7381276196
0	622019	86	1141.7381276196
0	642587	87	1141.7381276196
0	677380	88	1141.7381276196
0	698679	89	1141.7381276196
0	725261	90	1141.7381276196
0	747066	91	1141.7381276196
0	771248	92	1141.7381276196
0	793040	93	1141.7381276196
0	815549	94	1141.7381276196
0	838448	95	1141.7381276196
0	861042	96	1141.7381276196
0	883659	97	1141.7381276196
0	906340	98	1141.7381276196
0	928876	99	1141.7381276196
0	951732	100	1141.7381276196
0	974381	101	1141.7381276196
0	997068	102	1141.7381276196
0	1019866	103	1141.7381276196
1	11	1	1098.1171513867
1	63	2	1098.1171513867
1	116	3	1098.1703009706
1	256	4	1098.2571207699
1	397	5	1098.3869065618
1	600	6	1098.5838398999
1	874	7	1098.837773599
1	1153	8	1099.1539312541
1	1608	9	1099.0967946078
1	2062	10	1098.5657066943
1	2630	11	1098.2773720345
1	3320	12	1098.6446550798
1	4011	13	1099.2355102453
1	4978	14	1100.3768492151
1	5954	15	1101.5956791707
1	7086	16	1102.7315788164
1	8379	17	1103.8766815569
1	9629	18	1104.1658562349
1	11046	19	1107.6174970204
1	12604	20	1108.1480015335
1	14360	21	1107.8234391321
1	16055	22	1107.4264653634
1	18181	23	1107.6557625315
1	20288	24	1107.8847333799
1	22546	25	1107.3692114004
1	25133	26	1106.4843965571
1	27618	27	1106.161750262
1	30283	28	1107.4050814919
1	33176	29	1109.8788427137
1	35991	30	1112.9451481055
1	39113	31	1116.5749333357
1	42333	32	1121.212582651
1	45573	33	1126.8860921212
1	49357	34	1132.590949184
1	53059	35	1138.5514346399
1	57156	36	1145.2177973017
1	61405	37	1151.5570375744
1	65805	38	1158.1645518034
1	70688	39	1164.6997157305
1	75533	40	1171.3449628004
1	80695	41	1177.5020663713
1	86023	42	1183.7620414996
1	91457	43	1190.1412202225
1	97520	44	1196.0099752693
1	103494	45	1201.6865335681
1	109532	46	1207.3616499955
1	116203	47	1212.6114549623
1	122875	48	1216.7073674732
1	130172	49	1217.635591952
1	137436	50	1221.1414799363
1	145057	51	1224.8227335637
1	152953	52	1228.3307493736
1	160953	53	1232.4080467393
1	169671	54	1236.8283161849
1	178285	55	1241.4776348882
1	186904	56	1245.6853295902
1	196304	57	1249.3262064572
1	205739	58	1252.7649911047
1	215964	59	1256.3270176669
1	226334	60	1259.7869446882
1	236729	61	1264.5103420663
1	247863	62	1269.4055775598
1	259118	63	1274.2624490507
1	270778	64	1278.1278553322
1	282693	65	1280.8350283157
1	294763	66	1282.3111912892
1	307788	67	1284.3026112593
1	320690	68	1286.6875452048
1	333651	69	1289.5058490172
1	347684	70	1292.7973181353
1	361617	71	1296.5181803389
1	376002	72	1300.6769041559
1	390813	73	1305.0988215034
1	406218	74	1308.2540275791
1	421858	75	1310.0190699337
1	437712	76	1310.3939485673
1	454131	77	1310.3939485673
1	471142	78	1310.3939485673
1	488147	79	1310.3939485673
1	506157	80	1310.3939485673
1	524220	81	1310.3939485673
1	542472	82	1310.3939485673
1	561686	83	1310.3939485673
1	580950	84	1310.3939485673
1	601219	85	1310.3939485673
1	622019	86	1310.3939485673
1	642587	87	1310.3939485673
1	677380	88	1310.3939485673
1	698679	89	1310.3939485673
1	725261	90	1310.3939485673
1	747066	91	1310.3939485673
1	771248	92	1310.3939485673
1	793040	93	1310.3939485673
1	815549	94	1310.3939485673
1	838448	95	1310.3939485673
1	861042	96	1310.3939485673
1	883659	97	1310.3939485673
1	906340	98	1310.3939485673
1	928876	99	1310.3939485673
1	951732	100	1310.3939485673
1	974381	101	1310.3939485673
1	997068	102	1310.3939485673
1	1019866	103	1310.3939485673
2	11	1	1593.3739804024
2	63	2	1593.3739804024
2	116	3	1591.6432299799
2	256	4	1588.4367752649
2	397	5	1584.1438514093
2	600	6	1578.2724014378
2	874	7	1570.8354162664
2	1153	8	1562.4443344201
2	1608	9	1553.0083900402
2	2062	10	1544.2581665735
2	2630	11	1540.9992183105
2	3320	12	1541.9586414031
2	4011	13	1543.1355249624
2	4978	14	1544.3123814837
2	5954	15	1545.5709369056
2	7086	16	1546.8062071033
2	8379	17	1548.2922281726
2	9629	18	1549.3198678349
2	11046	19	1549.5867757553
2	12604	20	1548.5578185242
2	14360	21	1547.3199321166
2	16055	22	1544.6271622556
2	18181	23	1540.4910453827
2	20288	24	1535.2200558541
2	22546	25	1530.4806499576
2	25133	26	1526.9000579773
2	27618	27	1518.7930394742
2	30283	28	1508.1717203467
2	33176	29	1495.9921049269
2	35991	30	1481.0237270204
2	39113	31	1466.4801447421
2	42333	32	1451.1506057309
2	45573	33	1435.7440382938
2	49357	34	1420.6948026099
2	53059	35	1405.7970438982
2	57156	36	1390.8858033826
2	61405	37	1376.2320710706
2	65805	38	1361.8693459738
2	70688	39	1346.3703974843
2	75533	40	1331.3793711381
2	80695	41	1316.3228952688
2	86023	42	1301.7599355163
2	91457	43	1287.0272545307
2	97520	44	1272.5434140736
2	103494	45	1258.2460504926
2	109532	46	1245.2171672171
2	116203	47	1235.835296226
2	122875	48	1229.6771296041
2	130172	49	1221.3201769581
2	137436	50	1211.3211035181
2	145057	51	1199.5417718291
2	152953	52	1185.4035816366
2	160953	53	1171.1697173576
2	169671	54	1157.4909820266
2	178285	55	1147.5667781563
2	186904	56	1141.8037144252
2	196304	57	1133.5924332692
2	205739	58	1123.8757549296
2	215964	59	1112.8789013019
2	226334	60	1099.7768367541
2	236729	61	1085.4486518468
2	247863	62	1070.64892809
2	259118	63	1055.888027172
2	270778	64	1041.6760693591
2	282693	65	1027.2562968385
2	294763	66	1012.4686549355
2	307788	67	997.78181104897
2	320690	68	982.90383652944
2	333651	69	968.42516905696
2	347684	70	953.81219348681
2	361617	71	940.008194658
2	376002	72	925.77545043606
2	390813	73	911.97325391984
2	406218	74	898.3562431401
2	421858	75	885.31502791039
2	437712	76	872.11849500711
2	454131	77	859.19222992839
2	471142	78	845.86157323946
2	488147	79	832.59704644094
2	506157	80	819.21392531956
2	524220	81	805.91521620961
2	542472	82	793.1416715662
2	561686	83	780.3131323174
2	580950	84	766.33860878114
2	601219	85	752.11901398105
2	622019	86	737.54081365483
2	642587	87	723.47039771918
2	677380	88	708.72950113324
2	698679	89	693.94447548326
2	725261	90	679.66750721207
2	747066	91	665.68691310565
2	771248	92	654.13598389777
2	793040	93	648.59126437548
2	815549	94	644.68100616464
2	838448	95	635.6985212027
2	861042	96	625.80081697175
2	883659	97	614.92397403476
2	906340	98	603.62203704825
2	928876	99	592.06298405794
2	951732	100	579.25610687725
2	974381	101	564.91106594462
2	997068	102	552.69387602208
2	1019866	103	539.10144993962
3	11	1	916.51891571645
3	63	2	916.51891571645
3	116	3	918.47061300137
3	256	4	921.8763280193
3	397	5	926.26255401741
3	600	6	932.26161372082
3	874	7	939.8602338697
3	1153	8	948.43368697174
3	1608	9	958.07471158538
3	2062	10	970.27217770217
3	2630	11	984.57665842483
3	3320	12	998.95613316112
3	4011	13	1013.7948051396
3	4978	14	1028.6331362116
3	5954	15	1044.5015634027
3	7086	16	1060.1317543534
3	8379	17	1075.2092595343
3	9629	18	1089.2980969161
3	11046	19	1098.945946605
3	12604	20	1104.0829962401
3	14360	21	1111.2995195704
3	16055	22	1120.5552075005
3	18181	23	1130.9588753832
3	20288	24	1143.5840837234
3	22546	25	1158.4164150915
3	25133	26	1173.2539655169
3	27618	27	1185.4526155958
3	30283	28	1196.9740496074
3	33176	29	1204.9139442036
3	35991	30	1208.419275102
3	39113	31	1211.9639479607
3	42333	32	1216.2067120776
3	45573	33	1220.2899288199
3	49357	34	1223.9239638365
3	53059	35	1227.648047886
3	57156	36	1232.0726429453
3	61405	37	1236.5532417087
3	65805	38	1240.9448606448
3	70688	39	1244.7621487201
3	75533	40	1248.3503220078
3	80695	41	1251.9541609493
3	86023	42	1255.4398744666
3	91457	43	1259.4727967581
3	97520	44	1264.6023241847
3	103494	45	1269.6658098558
3	109532	46	1273.9229379185
3	116203	47	1276.9065599965
3	122875	48	1278.8649797947
3	130172	49	1281.5050741398
3	137436	50	1284.6421114794
3	145057	51	1288.4045467781
3	152953	52	1292.9386783098
3	160953	53	1297.5034926152
3	169671	54	1301.9167990262
3	178285	55	1305.1396924758
3	186904	56	1307.0112522091
3	196304	57	1309.7076610753
3	205739	58	1312.9196400524
3	215964	59	1316.592326967
3	226334	60	1320.9681041345
3	236729	61	1325.7533762678
3	247863	62	1330.696131134
3	259118	63	1335.5757937534
3	270778	64	1340.3488601514
3	282693	65	1345.1917208319
3	294763	66	1350.1581299363
3	307788	67	1355.0906861662
3	320690	68	1360.087433355
3	333651	69	1365.0893717784
3	347684	70	1370.6020703659
3	361617	71	1375.809585049
3	376002	72	1381.1918107626
3	390813	73	1386.8523009713
3	406218	74	1392.9137766826
3	421858	75	1400.3439043112
3	437712	76	1408.06878574
3	454131	77	1415.5017040514
3	471142	78	1423.1671574212
3	488147	79	1430.8114963611
3	506157	80	1438.595657313
3	524220	81	1446.3369001466
3	542472	82	1453.7724422067
3	561686	83	1461.1000709419
3	580950	84	1468.158093055
3	601219	85	1474.6506126045
3	622019	86	1477.4780942495
3	642587	87	1482.7411370308
3	677380	88	1486.6472487654
3	698679	89	1489.5568945349
3	725261	90	1495.4373310435
3	747066	91	1501.8539071374
3	771248	92	1508.1474176214
3	793040	93	1513.5879166389
3	815549	94	1520.9532655058
3	838448	95	1526.4847895991
3	861042	96	1533.2342756251
3	883659	97	1541.885175955
3	906340	98	1551.5928850543
3	928876	99	1561.5214419049
3	951732	100	1569.5925356599
3	974381	101	1576.6668448177
3	997068	102	1586.9029741816
3	1019866	103	1594.4179760625
4	63	2	2.0578714020317
4	116	3	3.3615311514586
4	256	4	5.0251093153842
4	397	5	7.6249606199795
4	600	6	9.8319282819051
4	874	7	12.241145621589
4	1153	8	14.325590677606
4	1608	9	15.550771057396
4	2062	10	15.299538248545
4	2630	11	15.109214649117
4	3320	12	14.858447331889
4	4011	13	14.811849370878
4	4978	14	15.817496981961
4	5954	15	14.741259956616
4	7086	16	14.860694110091
4	8379	17	15.949228780507
4	9629	18	15.229014828173
4	11046	19	15.433206626587
4	12604	20	15.759393294086
4	14360	21	15.966295903712
4	16055	22	14.788996877335
4	18181	23	14.767950205901
4	20288	24	15.453521857969
4	22546	25	15.79924532182
4	25133	26	15.19494773855
4	27618	27	15.653124540625
4	30283	28	15.312115282542
4	33176	29	15.283962724311
4	35991	30	15.90805765558
4	39113	31	15.079407831165
4	42333	32	14.877112020156
4	45573	33	14.959311873675
4	49357	34	15.629622244928
4	53059	35	15.549551189854
4	57156	36	14.738889068179
4	61405	37	15.362632594514
4	65805	38	15.295014060638
4	70688	39	15.599684562138
4	75533	40	15.072955392906
4	80695	41	15.324791077944
4	86023	42	15.616608560458
4	91457	43	15.272858278872
4	97520	44	15.715873723524
4	103494	45	15.973970669392
4	109532	46	15.938350267406
4	116203	47	14.883593794145
4	122875	48	14.883443946135
4	130172	49	13.066286143276
4	137436	50	15.229393085103
4	145057	51	14.943592748442
4	152953	52	15.960198356654
4	160953	53	14.975776263862
4	169671	54	15.751790142152
4	178285	55	15.130929573462
4	186904	56	15.706573461182
4	196304	57	14.834757026006
4	205739	58	15.366416913643
4	215964	59	14.925964243128
4	226334	60	15.879343764274
4	236729	61	14.700172517519
4	247863	62	14.720865952503
4	259118	63	12.794906278797
4	270778	64	8.9610307643695
4	282693	65	4.8862565854138
4	294763	66	6.6223410713293
4	307788	67	7.9426381797569
4	320690	68	9.3486419467062
4	333651	69	10.784952486357
4	347684	70	12.191918148034
4	361617	71	13.626632108753
4	376002	72	14.399156008644
4	390813	73	10.213492932961
4	406218	74	5.7134929329612
4	421858	75	1.2134929329612
4	437712	76	0
4	454131	77	0
4	471142	78	0
4	488147	79	0
4	506157	80	0
4	524220	81	0
4	542472	82	0
4	561686	83	0
4	580950	84	0
4	601219	85	0
4	622019	86	0
4	642587	87	0
4	677380	88	0
4	698679	89	0
4	725261	90	0
4	747066	91	0
4	771248	92	0
4	793040	93	0
4	815549	94	0
4	838448	95	0
4	861042	96	0
4	883659	97	0
4	906340	98	0
4	928876	99	0
4	951732	100	0
4	974381	101	0
4	997068	102	0
4	1019866	103	0
5	63	2	2.5772626519203
5	116	3	4.6228337610373
5	256	4	6.0637885111384
5	397	5	8.2934689919697
5	600	6	10.504799702321
5	874	7	11.852468715305
5	1153	8	13.328345213621
5	1608	9	14.957185666845
5	2062	10	15.153298371308
5	2630	11	14.839281809283
5	3320	12	14.929956558696
5	4011	13	14.929613554943
5	4978	14	15.966046622046
5	5954	15	15.725998165202
5	7086	16	15.196051699389
5	8379	17	14.331880202458
5	9629	18	9.8318802024578
5	11046	19	5.3353064785819
5	12604	20	7.4630951319463
5	14360	21	9.8287445295011
5	16055	22	11.149295118369
5	18181	23	13.624572824884
5	20288	24	15.566564057698
5	22546	25	15.673799295723
5	25133	26	15.11525545551
5	27618	27	15.936657659966
5	30283	28	14.960946568777
5	33176	29	15.624157441594
5	35991	30	15.11620517252
5	39113	31	15.949869816448
5	42333	32	15.986513594398
5	45573	33	15.526200665999
5	49357	34	15.347563025961
5	53059	35	15.608746208949
5	57156	36	15.470006867917
5	61405	37	15.162789326184
5	65805	38	15.928024146822
5	70688	39	15.357033093204
5	75533	40	15.424080570112
5	80695	41	14.918515229691
5	86023	42	15.241681735381
5	91457	43	15.327512751729
5	97520	44	15.13017374468
5	103494	45	13.674330886289
5	109532	46	9.8206350474375
5	116203	47	6.4461669759116
5	122875	48	8.7588080043196
5	130172	49	10.480357158253
5	137436	50	12.361688592913
5	145057	51	14.84266522047
5	152953	52	14.94310653687
5	160953	53	14.368459895493
5	169671	54	10.431045127884
5	178285	55	6.0573904605726
5	186904	56	8.6410676839905
5	196304	57	10.230054550679
5	205739	58	11.582032058589
5	215964	59	13.799268114604
5	226334	60	15.090634335577
5	236729	61	15.587265304546
5	247863	62	15.530626736605
5	259118	63	14.9766648344
5	270778	64	15.195661489689
5	282693	65	15.583324928838
5	294763	66	15.477103243605
5	307788	67	15.678518099198
5	320690	68	15.304451209027
5	333651	69	15.60218363821
5	347684	70	14.738444174826
5	361617	71	15.200958082033
5	376002	72	14.902513803751
5	390813	73	14.894573737076
5	406218	74	15.005768872448
5	421858	75	15.276052126847
5	437712	76	14.895642460533
5	454131	77	15.361645037681
5	471142	78	15.290736999316
5	488147	79	15.450546309049
5	506157	80	15.355121551687
5	524220	81	14.748749598465
5	542472	82	14.745416817721
5	561686	83	15.623475786624
5	580950	84	15.598554211855
5	601219	85	15.512660980877
5	622019	86	14.993369427975
5	642587	87	15.238393198256
5	677380	88	15.058496943419
5	698679	89	15.411212781258
5	725261	90	15.364738112036
5	747066	91	13.131492650526
5	771248	92	8.8095158280975
5	793040	93	9.0906078124589
5	815549	94	10.433469022595
5	838448	95	11.862661131488
5	861042	96	13.751259202271
5	883659	97	14.73551034003
5	906340	98	15.070739207161
5	928876	99	15.092952528363
5	951732	100	15.816096575279
5	974381	101	15.558587605273
5	997068	102	15.496532269288
5	1019866	103	15.050332956319
6	116	3	2103.2782741811
6	256	4	2103.2782741811
6	397	5	2103.05481559
6	600	6	2100.396303522
6	874	7	2096.4356803865
6	1153	8	2090.1804508247
6	1608	9	2081.5657944443
6	2062	10	2071.2206600277
6	2630	11	2059.3747342755
6	3320	12	2045.6120138653
6	4011	13	2029.9039596546
6	4978	14	2014.4379023456
6	5954	15	1999.6483960903
6	7086	16	1984.7017961615
6	8379	17	1969.8556750588
6	9629	18	1954.2415111215
6	11046	19	1938.8194423251
6	12604	20	1923.7380003587
6	14360	21	1908.8102940873
6	16055	22	1894.1631472568
6	18181	23	1878.902261869
6	20288	24	1863.5016868013
6	22546	25	1847.9444294103
6	25133	26	1832.2282402667
6	27618	27	1816.4020679427
6	30283	28	1801.2701765832
6	33176	29	1786.1954189665
6	35991	30	1770.9869998977
6	39113	31	1755.4136970391
6	42333	32	1740.2474046252
6	45573	33	1725.7114829818
6	49357	34	1710.6270803096
6	53059	35	1695.7373691526
6	57156	36	1681.0347782407
6	61405	37	1667.161363744
6	65805	38	1652.9989799238
6	70688	39	1638.9431324128
6	75533	40	1625.5018379469
6	80695	41	1612.03360649
6	86023	42	1598.5403863805
6	91457	43	1584.9368675732
6	97520	44	1571.2700569432
6	103494	45	1556.7846944429
6	109532	46	1542.3101990554
6	116203	47	1528.448123696
6	122875	48	1514.2543592084
6	130172	49	1499.8451554834
6	137436	50	1484.7440764713
6	145057	51	1470.0303974713
6	152953	52	1453.8500439268
6	160953	53	1442.6310551258
6	169671	54	1429.9469649301
6	178285	55	1414.8178602268
6	186904	56	1399.6242333759
6	196304	57	1385.0664618654
6	205739	58	1370.6729821773
6	215964	59	1355.7382676868
6	226334	60	1341.4174774977
6	236729	61	1326.982014543
6	247863	62	1312.3943074072
6	259118	63	1297.0238648318
6	270778	64	1282.9255020554
6	282693	65	1268.2688954961
6	294763	66	1254.217869835
6	307788	67	1244.0075422535
6	320690	68	1235.0827766113
6	333651	69	1230.0444098669
6	347684	70	1223.0734716574
6	361617	71	1214.2110720829
6	376002	72	1203.1107202754
6	390813	73	1190.2212010192
6	406218	74	1175.561916812
6	421858	75	1161.9812269295
6	437712	76	1152.692812195
6	454131	77	1147.6833285047
6	471142	78	1146.6928079056
6	488147	79	1146.5304156855
6	506157	80	1146.4976899231
6	524220	81	1146.4938606927
6	542472	82	1146.4934502535
6	561686	83	1146.4934502535
6	580950	84	1146.4934502535
6	601219	85	1146.4934502535
6	622019	86	1146.4934502535
6	642587	87	1146.4934502535
6	677380	88	1146.4934502535
6	698679	89	1145.5065793894
6	725261	90	1143.7409855102
6	747066	91	1139.8650069541
6	771248	92	1134.3174247349
6	793040	93	1126.7792213224
6	815549	94	1117.6669642504
6	838448	95	1107.1148418974
6	861042	96	1095.2072766153
6	883659	97	1081.8190299745
6	906340	98	1066.8151440745
6	928876	99	1052.7586013654
6	951732	100	1038.3065913466
6	974381	101	1023.3940237846
6	997068	102	1008.6431656382
6	1019866	103	994.62236595274
7	116	3	1098.1171513867
7	256	4	1098.1171513867
7	397	5	1098.1229189253
7	600	6	1098.1915359835
7	874	7	1098.2937609504
7	1153	8	1098.4552104529
7	1608	9	1098.6775575263
7	2062	10	1098.9445687988
7	2630	11	1099.2503159821
7	3320	12	1098.9887915269
7	4011	13	1098.4525542437
7	4978	14	1098.36175136
7	5954	15	1098.7210106213
7	7086	16	1099.4850991228
7	8379	17	1100.631340715
7	9629	18	1101.8368814761
7	11046	19	1103.0275909261
7	12604	20	1103.9642063276
7	14360	21	1104.2176313116
7	16055	22	1107.717113598
7	18181	23	1108.2451211655
7	20288	24	1107.697542898
7	22546	25	1107.4590751785
7	25133	26	1107.7030235518
7	27618	27	1107.9486790959
7	30283	28	1107.1296024069
7	33176	29	1106.3137391596
7	35991	30	1106.3646376536
7	39113	31	1107.8111966085
7	42333	32	1110.557226012
7	45573	33	1113.545585239
7	49357	34	1117.3086309139
7	53059	35	1122.5371218882
7	57156	36	1128.6025359548
7	61405	37	1134.3258811764
7	65805	38	1140.392747675
7	70688	39	1147.0893445992
7	75533	40	1153.4931513499
7	80695	41	1159.9097916328
7	86023	42	1166.3381080614
7	91457	43	1172.6566764591
7	97520	44	1178.7733633825
7	103494	45	1185.2563995337
7	109532	46	1191.7345720244
7	116203	47	1197.5697193204
7	122875	48	1203.0278954214
7	130172	49	1208.4007605175
7	137436	50	1213.3980958899
7	145057	51	1217.5699886513
7	152953	52	1218.769928255
7	160953	53	1221.8977041383
7	169671	54	1224.9760240925
7	178285	55	1228.633090626
7	186904	56	1232.7453885018
7	196304	57	1237.1982312203
7	205739	58	1241.6008213541
7	215964	59	1245.8573317623
7	226334	60	1249.2824153643
7	236729	61	1252.7349250932
7	247863	62	1256.2238468526
7	259118	63	1259.8999743655
7	270778	64	1264.3259189273
7	282693	65	1269.5170550842
7	294763	66	1274.4245163055
7	307788	67	1277.6694622202
7	320690	68	1280.5058434801
7	333651	69	1282.1070876569
7	347684	70	1284.3058776312
7	361617	71	1287.0898452005
7	376002	72	1290.6199378258
7	390813	73	1294.7517009003
7	406218	74	1299.4507659299
7	421858	75	1303.8172540678
7	437712	76	1306.8349276542
7	454131	77	1308.4624375195
7	471142	78	1308.7842435471
7	488147	79	1308.8370024653
7	506157	80	1308.8476345991
7	524220	81	1308.8488786615
7	542472	82	1308.8490120074
7	561686	83	1308.8490120074
7	580950	84	1308.8490120074
7	601219	85	1308.8490120074
7	622019	86	1308.8490120074
7	642587	87	1308.8490120074
7	677380	88	1308.8490120074
7	698679	89	1305.8087437365
7	725261	90	1306.3821218152
7	747066	91	1307.6412934631
7	771248	92	1309.4688278692
7	793040	93	1311.9521306039
7	815549	94	1314.9932281036
7	838448	95	1318.5173853761
7	861042	96	1322.4942282693
7	883659	97	1326.9655834324
7	906340	98	1331.9648819596
7	928876	99	1336.6268070873
7	951732	100	1341.4804946871
7	974381	101	1346.4888599015
7	997068	102	1351.442915232
7	1019866	103	1356.151781437
8	116	3	1593.3739804024
8	256	4	1593.3739804024
8	397	5	1592.0224495203
8	600	6	1589.4823436952
8	874	7	1585.1142395823
8	1153	8	1579.2040638506
8	1608	9	1571.8945601468
8	2062	10	1563.2489214555
8	2630	11	1552.8659512362
8	3320	12	1544.1141484317
8	4011	13	1540.996056319
8	4978	14	1541.9642473704
8	5954	15	1543.2104918977
8	7086	16	1544.4286140952
8	8379	17	1545.6050124967
8	9629	18	1546.796869986
8	11046	19	1548.2989916989
8	12604	20	1552.4438602751
8	14360	21	1552.7758038018
8	16055	22	1551.8603760763
8	18181	23	1550.509768019
8	20288	24	1547.7840078751
8	22546	25	1543.2006226124
8	25133	26	1537.7197191868
8	27618	27	1533.1836365855
8	30283	28	1529.0784236839
8	33176	29	1520.2839859454
8	35991	30	1509.3675208729
8	39113	31	1496.4283102668
8	42333	32	1481.2172490679
8	45573	33	1466.4757686061
8	49357	34	1451.6453183555
8	53059	35	1437.1654851324
8	57156	36	1422.0042496685
8	61405	37	1406.561030834
8	65805	38	1391.7934499343
8	70688	39	1376.7341129768
8	75533	40	1361.7164802711
8	80695	41	1347.1432663696
8	86023	42	1332.157210871
8	91457	43	1316.8238122988
8	97520	44	1301.237086339
8	103494	45	1286.675766038
8	109532	46	1271.7837020626
8	116203	47	1257.6246396493
8	122875	48	1246.4306761911
8	130172	49	1238.0688148787
8	137436	50	1230.6716832434
8	145057	51	1220.9259420765
8	152953	52	1209.1057653413
8	160953	53	1195.8204987571
8	169671	54	1181.6492265955
8	178285	55	1166.9819125412
8	186904	56	1156.4448983077
8	196304	57	1148.7822793708
8	205739	58	1142.5299525813
8	215964	59	1134.5314599877
8	226334	60	1124.8178676826
8	236729	61	1112.7048228447
8	247863	62	1098.3947751703
8	259118	63	1083.8314620949
8	270778	64	1069.8698000839
8	282693	65	1054.8323756665
8	294763	66	1039.6743864318
8	307788	67	1025.6017804624
8	320690	68	1010.7577122877
8	333651	69	996.24398456934
8	347684	70	981.7547740671
8	361617	71	967.05947448526
8	376002	72	953.21216996634
8	390813	73	939.36818006285
8	406218	74	924.80706239084
8	421858	75	910.74016901768
8	437712	76	896.87094039086
8	454131	77	884.07504443091
8	471142	78	870.3483768269
8	488147	79	857.07689872196
8	506157	80	843.77756954149
8	524220	81	830.63889721088
8	542472	82	816.86681689657
8	561686	83	803.65333976504
8	580950	84	790.02863692371
8	601219	85	776.97467456091
8	622019	86	763.00250464717
8	642587	87	748.65344544475
8	677380	88	733.67407411365
8	698679	89	719.2574566545
8	725261	90	704.67233341288
8	747066	91	689.56343037069
8	771248	92	675.34922768305
8	793040	93	662.57311746692
8	815549	94	653.60223901061
8	838448	95	648.19663678177
8	861042	96	641.5984749307
8	883659	97	631.04735676825
8	906340	98	620.53007858324
8	928876	99	609.33436876295
8	951732	100	597.90197045036
8	974381	101	586.73530601747
8	997068	102	572.2006736094
8	1019866	103	559.65891098623
9	116	3	916.51891571645
9	256	4	916.51891571645
9	397	5	918.04298245587
9	600	6	920.80803526917
9	874	7	925.27107548768
9	1153	8	931.30970261458
9	1608	9	938.77807062145
9	2062	10	947.61161309133
9	2630	11	958.22024614557
9	3320	12	970.52862107323
9	4011	13	984.70471908078
9	4978	14	999.02681569368
9	5954	15	1014.7400216427
9	7086	16	1030.0986487364
9	8379	17	1044.9312036294
9	9629	18	1060.0129862224
9	11046	19	1075.277839253
9	12604	20	1086.7042562021
9	14360	21	1097.6346823297
9	16055	22	1103.8949740751
9	18181	23	1111.5015620057
9	20288	24	1121.2566392323
9	22546	25	1132.7912782706
9	25133	26	1145.9000165439
9	27618	27	1160.9021221324
9	30283	28	1176.2335134077
9	33176	29	1188.6015284244
9	35991	30	1200.2587336059
9	39113	31	1208.0981067273
9	42333	32	1211.6601125357
9	45573	33	1215.2653290054
9	49357	34	1219.3845903777
9	53059	35	1223.2311350742
9	57156	36	1226.8959683812
9	61405	37	1230.7539965163
9	65805	38	1235.1406209728
9	70688	39	1236.3997348548
9	75533	40	1240.9916016296
9	80695	41	1244.5771588852
9	86023	42	1248.1641423769
9	91457	43	1251.8342640814
9	97520	44	1255.5650208981
9	103494	45	1259.5972782359
9	109532	46	1264.8713801446
9	116203	47	1269.8858857379
9	122875	48	1273.5370178637
9	130172	49	1276.1962565218
9	137436	50	1278.548691903
9	145057	51	1281.6292325279
9	152953	52	1285.337364631
9	160953	53	1289.5979627206
9	169671	54	1294.1427036723
9	178285	55	1298.846525748
9	186904	56	1302.2565155828
9	196304	57	1304.7449574469
9	205739	58	1306.7754057647
9	215964	59	1309.3983184521
9	226334	60	1312.6049968556
9	236729	61	1316.6504650212
9	247863	62	1321.4296797511
9	259118	63	1326.2934790865
9	270778	64	1330.9563413114
9	282693	65	1335.9303328531
9	294763	66	1341.0211225972
9	307788	67	1345.7473878712
9	320690	68	1350.732747661
9	333651	69	1355.6071630649
9	347684	70	1360.4733443956
9	361617	71	1365.6045757148
9	376002	72	1370.8284273319
9	390813	73	1376.0510285208
9	406218	74	1381.588961393
9	421858	75	1387.358007799
9	437712	76	1393.6132344501
9	454131	77	1401.0841254522
9	471142	78	1409.0866469517
9	488147	79	1416.7180711894
9	506157	80	1424.3655104763
9	524220	81	1431.9451259684
9	542472	82	1439.9619204675
9	561686	83	1447.6535493546
9	580950	84	1455.5845547146
9	601219	85	1462.7984273039
9	622019	86	1469.6813236121
9	642587	87	1476.1751169875
9	677380	88	1478.9244491919
9	698679	89	1484.1174598116
9	725261	90	1487.3892102594
9	747066	91	1491.3218851156
9	771248	92	1497.267350949
9	793040	93	1503.4851872249
9	815549	94	1508.4569264909
9	838448	95	1514.961434942
9	861042	96	1522.8515259383
9	883659	97	1529.3490335405
9	906340	98	1537.2332417718
9	928876	99	1546.6863230525
9	951732	100	1556.5060908726
9	974381	101	1565.9472440563
9	997068	102	1573.0312877467
9	1019866	103	1583.0521347112
10	116	3	1.3036597494269
10	256	4	1.6635781639256
10	397	5	2.5998513045954
10	600	6	2.2069676619256
10	874	7	2.4092173396843
10	1153	8	2.0844450560166
10	1608	9	1.2251803797903
10	2062	10	-0.25123280885164
10	2630	11	-0.19032359942794
10	3320	12	-0.25076731722802
10	4011	13	-0.046597961010413
10	4978	14	1.0056476110825
10	5954	15	-1.0762370253447
10	7086	16	0.11943415347487
10	8379	17	1.0885346704163
10	9629	18	-0.7202139523346
10	11046	19	0.2041917984141
10	12604	20	0.32618666749913
10	14360	21	0.20690260962583
10	16055	22	-1.1772990263766
10	18181	23	-0.021046671434306
10	20288	24	0.68557165206876
10	22546	25	0.34572346385103
10	25133	26	-0.60429758327082
10	27618	27	0.45817680207547
10	30283	28	-0.34100925808307
10	33176	29	-0.028152558230795
10	35991	30	0.62409493126906
10	39113	31	-0.82864982441533
10	42333	32	-0.20229581100866
10	45573	33	0.082199853518977
10	49357	34	0.67031037125271
10	53059	35	-0.080071055074223
10	57156	36	-0.81066212167498
10	61405	37	0.62374352633488
10	65805	38	-0.067618533875793
10	70688	39	0.30467050150037
10	75533	40	-0.52672916923184
10	80695	41	0.25183568503708
10	86023	42	0.29181748251431
10	91457	43	-0.34375028158538
10	97520	44	0.44301544465125
10	103494	45	0.25809694586787
10	109532	46	-0.035620401985945
10	116203	47	-1.0547564732609
10	122875	48	-0.00014984800946038
10	130172	49	-1.8171578028593
10	137436	50	2.1631069418276
10	145057	51	-0.28580033666176
10	152953	52	1.0166056082118
10	160953	53	-0.98442209279165
10	169671	54	0.77601387829054
10	178285	55	-0.62086056869011
10	186904	56	0.57564388772007
10	196304	57	-0.87181643517688
10	205739	58	0.53165988763794
10	215964	59	-0.44045267051552
10	226334	60	0.95337952114642
10	236729	61	-1.1791712467559
10	247863	62	0.020693434984423
10	259118	63	-1.9259596737062
10	270778	64	-3.8338755144272
10	282693	65	-4.0747741789557
10	294763	66	1.7360844859155
10	307788	67	1.3202971084276
10	320690	68	1.4060037669493
10	333651	69	1.4363105396507
10	347684	70	1.4069656616775
10	361617	71	1.4347139607184
10	376002	72	0.77252389989136
10	390813	73	-4.185663075683
10	406218	74	-4.5
10	421858	75	-4.5
10	437712	76	-1.2134929329612
10	454131	77	0
10	471142	78	0
10	488147	79	0
10	506157	80	0
10	524220	81	0
10	542472	82	0
10	561686	83	0
10	580950	84	0
10	601219	85	0
10	622019	86	0
10	642587	87	0
10	677380	88	0
10	698679	89	0
10	725261	90	0
10	747066	91	0
10	771248	92	0
10	793040	93	0
10	815549	94	0
10	838448	95	0
10	861042	96	0
10	883659	97	0
10	906340	98	0
10	928876	99	0
10	951732	100	0
10	974381	101	0
10	997068	102	0
10	1019866	103	0
11	116	3	2.3318018476891
11	256	4	3.3788120492087
11	397	5	6.2963081596598
11	600	6	6.9014892776312
11	874	7	8.9774326658752
11	1153	8	9.269132830846
11	1608	9	6.7992205261874
11	2062	10	1.2525390634568
11	2630	11	1.4644778322486
11	3320	12	1.2318375036811
11	4011	13	1.9583779311268
11	4978	14	6.0721645992301
11	5954	15	0.973
11	7086	16	2.557797239457
11	8379	17	6.4382545692018
11	9629	18	0.973
11	11046	19	2.9535487307389
11	12604	20	3.4706635804738
11	14360	21	3.0523476941207
11	16055	22	0.973
11	18181	23	2.0450309880036
11	20288	24	4.7496736141345
11	22546	25	3.5528574361519
11	25133	26	0.973
11	27618	27	3.9478380804589
11	30283	28	0.973
11	33176	29	2.0734229881789
11	35991	30	4.6419842682098
11	39113	31	0.973
11	42333	32	1.4065422750831
11	45573	33	2.4372320942557
11	49357	34	4.7415674644734
11	53059	35	1.9073659089938
11	57156	36	0.973
11	61405	37	4.4953799822769
11	65805	38	1.9291216244193
11	70688	39	3.3586322236487
11	75533	40	0.973
11	80695	41	3.1118392714711
11	86023	42	3.3134602496597
11	91457	43	0.973
11	97520	44	3.9046479060053
11	103494	45	3.2507273012249
11	109532	46	2.1160698414761
11	116203	47	0.973
11	122875	48	2.1320069537283
11	130172	49	0.973
11	137436	50	10.110184705334
11	145057	51	1.109870523212
11	152953	52	6.1657668184694
11	160953	53	0.973
11	169671	54	5.1768017481938
11	178285	55	0.973
11	186904	56	4.4046064306678
11	196304	57	0.973
11	205739	58	4.1553650519454
11	215964	59	0.973
11	226334	60	5.8944165485805
11	236729	61	0.973
11	247863	62	2.1882442661938
11	259118	63	0.973
11	270778	64	0.973
11	282693	65	0.973
11	294763	66	4.2270543150102
11	307788	67	4.0667214935218
11	320690	68	4.8042145366527
11	333651	69	5.4793715179852
11	347684	70	5.9995710426969
11	361617	71	6.7127185134025
11	376002	72	4.761218453962
11	390813	73	0.973
11	406218	74	0.973
11	421858	75	0.973
11	437712	76	0.973
11	454131	77	0.973
11	471142	78	0.973
11	488147	79	0.973
11	506157	80	0.973
11	524220	81	0.973
11	542472	82	0.973
11	561686	83	0.973
11	580950	84	0.973
11	601219	85	0.973
11	622019	86	0.973
11	642587	87	0.973
11	677380	88	0.973
11	698679	89	0.973
11	725261	90	0.973
11	747066	91	0.973
11	771248	92	0.973
11	793040	93	0.973
11	815549	94	0.973
11	838448	95	0.973
11	861042	96	0.973
11	883659	97	0.973
11	906340	98	0.973
11	928876	99	0.973
11	951732	100	0.973
11	974381	101	0.973
11	997068	102	0.973
11	1019866	103	0.973
12	116	3	2.045571109117
12	256	4	1.4409547501011
12	397	5	2.2296804808313
12	600	6	2.2113307103515
12	874	7	1.3476690129843
12	1153	8	1.4758764983155
12	1608	9	1.6288404532243
12	2062	10	0.1961127044633
12	2630	11	-0.31401656202506
12	3320	12	0.090674749412575
12	4011	13	-0.00034300375264174
12	4978	14	1.0364330671029
12	5954	15	-0.24004845684394
12	7086	16	-0.52994646581356
12	8379	17	-0.864171496931
12	9629	18	-4.5
12	11046	19	-4.4965737238759
12	12604	20	2.1277886533644
12	14360	21	2.3656493975548
12	16055	22	1.3205505888676
12	18181	23	2.475277706515
12	20288	24	1.9419912328138
12	22546	25	0.1072352380259
12	25133	26	-0.55854384021368
12	27618	27	0.82140220445581
12	30283	28	-0.97571109118871
12	33176	29	0.66321087281685
12	35991	30	-0.50795226907358
12	39113	31	0.83366464392748
12	42333	32	0.036643777950667
12	45573	33	-0.46031292839907
12	49357	34	-0.1786376400385
12	53059	35	0.26118318298832
12	57156	36	-0.13873934103176
12	61405	37	-0.30721754173283
12	65805	38	0.76523482063785
12	70688	39	-0.57099105361849
12	75533	40	0.067047476908192
12	80695	41	-0.50556534042116
12	86023	42	0.32316650568973
12	91457	43	0.085831016348674
12	97520	44	-0.19733900704887
12	103494	45	-1.455842858391
12	109532	46	-3.8536958388519
12	116203	47	-3.3744680715259
12	122875	48	2.312641028408
12	130172	49	1.7215491539333
12	137436	50	1.8813314346597
12	145057	51	2.4809766275575
12	152953	52	0.10044131639983
12	160953	53	-0.57464664137728
12	169671	54	-3.9374147676087
12	178285	55	-4.3736546673113
12	186904	56	2.5836772234179
12	196304	57	1.5889868666884
12	205739	58	1.3519775079098
12	215964	59	2.2172360560158
12	226334	60	1.291366220973
12	236729	61	0.49663096896838
12	247863	62	-0.056638567941263
12	259118	63	-0.5539619022049
12	270778	64	0.21899665528908
12	282693	65	0.38766343914904
12	294763	66	-0.1062216852326
12	307788	67	0.20141485559289
12	320690	68	-0.3740668901708
12	333651	69	0.29773242918309
12	347684	70	-0.86373946338426
12	361617	71	0.46251390720717
12	376002	72	-0.29844427828211
12	390813	73	-0.0079400666756566
12	406218	74	0.11119513537269
12	421858	75	0.27028325439897
12	437712	76	-0.38040966631379
12	454131	77	0.46600257714745
12	471142	78	-0.070908038364722
12	488147	79	0.1598093097331
12	506157	80	-0.095424757362343
12	524220	81	-0.60637195322197
12	542472	82	-0.0033327807439498
12	561686	83	0.8780589689035
12	580950	84	-0.024921574769541
12	601219	85	-0.0858932309784
12	622019	86	-0.51929155290127
12	642587	87	0.24502377028111
12	677380	88	-0.17989625483751
12	698679	89	0.35271583783906
12	725261	90	-0.046474669221787
12	747066	91	-2.2332454615103
12	771248	92	-4.3219768224284
12	793040	93	0.28109198436141
12	815549	94	1.3428612101357
12	838448	95	1.4291921088938
12	861042	96	1.8885980707826
12	883659	97	0.98425113775931
12	906340	98	0.33522886713035
12	928876	99	0.022213321202434
12	951732	100	0.72314404691569
12	974381	101	-0.25750897000544
12	997068	102	-0.062055335985496
12	1019866	103	-0.44619931296911
13	116	3	3.6211086383691
13	256	4	3.5288866095716
13	397	5	6.0192938043615
13	600	6	7.3221686285292
13	874	7	5.6851206126511
13	1153	8	6.7123948090755
13	1608	9	8.0121026982828
13	2062	10	2.8786236848779
13	2630	11	0.973
13	3320	12	2.4639111633826
13	4011	13	2.1363807014502
13	4978	14	6.2441872196306
13	5954	15	1.3181220627517
13	7086	16	0.973
13	8379	17	0.973
13	9629	18	0.973
13	11046	19	0.973
13	12604	20	5.3354728506996
13	14360	21	7.2754308369501
13	16055	22	5.3241661186203
13	18181	23	10.128515192619
13	20288	24	9.4948510382706
13	22546	25	2.6268824844312
13	25133	26	0.973
13	27618	27	5.4074798596568
13	30283	28	0.973
13	33176	29	4.7133185848509
13	35991	30	0.973
13	39113	31	5.458799211366
13	42333	32	2.3997966021049
13	45573	33	0.973
13	49357	34	1.5235855239862
13	53059	35	3.1967596112433
13	57156	36	1.681029437184
13	61405	37	1.0408488466082
13	65805	38	5.1891398118458
13	70688	39	0.973
13	75533	40	2.4422640038556
13	80695	41	0.973
13	86023	42	3.3594216565063
13	91457	43	2.499103201455
13	97520	44	1.4402746233224
13	103494	45	0.973
13	109532	46	0.973
13	116203	47	0.973
13	122875	48	6.4762894883978
13	130172	49	6.0701439284701
13	137436	50	7.4856325740282
13	145057	51	11.002738333924
13	152953	52	2.5008181592089
13	160953	53	0.973
13	169671	54	0.973
13	178285	55	0.973
13	186904	56	6.9669499098805
13	196304	57	5.619956946346
13	205739	58	5.5859759247539
13	215964	59	9.3921090057306
13	226334	60	6.8519327485804
13	236729	61	4.0773897587624
13	247863	62	1.9932566369429
13	259118	63	0.973
13	270778	64	2.9691774549828
13	282693	65	3.6672263871303
13	294763	66	1.8028956381726
13	307788	67	2.9834132787789
13	320690	68	0.973
13	333651	69	3.3330168151278
13	347684	70	0.973
13	361617	71	3.8621601955268
13	376002	72	1.0627722183775
13	390813	73	2.105263518146
13	406218	74	2.5481418798799
13	421858	75	3.1712831617698
13	437712	76	0.973
13	454131	77	3.9111376285952
13	471142	78	1.9165857361462
13	488147	79	2.7911225355888
13	506157	80	1.8320546820412
13	524220	81	0.973
13	542472	82	2.1056472873186
13	561686	83	5.5220890768048
13	580950	84	2.1193989436585
13	601219	85	1.8820656006421
13	622019	86	0.973
13	642587	87	3.0718197169222
13	677380	88	1.4990013803787
13	698679	89	3.5015891648645
13	725261	90	2.0141835735374
13	747066	91	0.973
13	771248	92	0.973
13	793040	93	2.233756214861
13	815549	94	5.0948095933046
13	838448	95	5.9223863161117
13	861042	96	8.2724907154639
13	883659	97	5.6117461045943
13	906340	98	3.3707903962971
13	928876	99	2.2364936350284
13	951732	100	4.9948475666068
13	974381	101	1.2429086312242
13	997068	102	1.9695734348702
13	1019866	103	0.973
14	256	4	0.22331036288911
14	397	5	2.6567485807851
14	600	6	3.9579959107718
14	874	7	6.2510802416286
14	1153	8	8.6089419669627
14	1608	9	10.338272114486
14	2062	10	11.838067920801
14	2630	11	13.756155309283
14	3320	12	15.701549613941
14	4011	13	15.457503754389
14	4978	14	14.779133866588
14	5954	15	14.956415245798
14	7086	16	14.875473681092
14	8379	17	15.645035029412
14	9629	18	15.452560093091
14	11046	19	15.100559753459
14	12604	20	14.914986624476
14	14360	21	15.141173557937
14	16055	22	15.285438781278
14	18181	23	15.434080888843
14	20288	24	15.583302632836
14	22546	25	15.733956773137
14	25133	26	15.844064292987
14	27618	27	15.177440950181
14	30283	28	15.112066206452
14	33176	29	15.23716392736
14	35991	30	15.663952494087
14	39113	31	15.470499817748
14	42333	32	14.908066245005
14	45573	33	15.621823833324
14	49357	34	15.84227284696
14	53059	35	15.904766704282
14	57156	36	15.007791639119
14	61405	37	15.411465223203
14	65805	38	15.569752045185
14	70688	39	14.889007712761
14	75533	40	14.918845989741
14	80695	41	15.046913159662
14	86023	42	15.001213045116
14	91457	43	14.974013038189
14	97520	44	15.870857716142
14	103494	45	15.858951186389
14	109532	46	15.706053972384
14	116203	47	15.090619590227
14	122875	48	15.261000928539
14	130172	49	15.795336130005
14	137436	50	15.219633794203
14	145057	51	15.922446535924
14	152953	52	11.657079423647
14	160953	53	13.063973063868
14	169671	54	15.578525266677
14	178285	55	15.815178938094
14	186904	56	15.086133800284
14	196304	57	14.915879141958
14	205739	58	15.455585889891
14	215964	59	14.775651352853
14	226334	60	14.893966388796
14	236729	61	15.051046194416
14	247863	62	15.858643107954
14	259118	63	14.83792458321
14	270778	64	15.588748931536
14	282693	65	14.92256381537
14	294763	66	10.741116414218
14	307788	67	9.3887239137809
14	320690	68	5.3002886838657
14	333651	69	7.3088225037004
14	347684	70	9.2802974383491
14	361617	71	11.650571629745
14	376002	72	13.538291517962
14	390813	73	15.397134609637
14	406218	74	14.268296304206
14	421858	75	9.7682963042065
14	437712	76	5.2682963042065
14	454131	77	1.0416953789943
14	471142	78	0.1707821376609
14	488147	79	0.034416523459231
14	506157	80	0.0040270658043049
14	524220	81	0.00043164433575265
14	542472	82	0
14	561686	83	0
14	580950	84	0
14	601219	85	0
14	622019	86	0
14	642587	87	0
14	677380	88	0
14	698679	89	1.8557649230119
14	725261	90	4.0740850752438
14	747066	91	5.8399877241565
14	771248	92	7.935531850018
14	793040	93	9.5969081510077
14	815549	94	11.113635183031
14	838448	95	12.541205648983
14	861042	96	14.100678889755
14	883659	97	15.798631235585
14	906340	98	14.794306668337
14	928876	99	15.229633600498
14	951732	100	15.714972499758
14	974381	101	15.544561937707
14	997068	102	14.775221005082
14	1019866	103	15.92586479981
15	256	4	2.0125663528328
15	397	5	3.7106564773355
15	600	6	6.1699812124126
15	874	7	8.3481694310547
15	1153	8	10.324731132515
15	1608	9	12.212032249255
15	2062	10	14.666026616247
15	2630	11	15.046576575749
15	3320	12	15.004829603946
15	4011	13	14.768281100946
15	4978	14	15.809870489477
15	5954	15	15.453110335069
15	7086	16	14.923801842076
15	8379	17	15.174222630239
15	9629	18	15.384663259634
15	11046	19	11.670283556284
15	12604	20	10.7453582751
15	14360	21	6.2453582750998
15	16055	22	7.5822055864745
15	18181	23	9.9817938923735
15	20288	24	12.468239357988
15	22546	25	14.272715709325
15	25133	26	15.700379775441
15	27618	27	15.513097851397
15	30283	28	14.964494120539
15	33176	29	15.729001301876
15	35991	30	15.087448127847
15	39113	31	15.373814623151
15	42333	32	15.050341363251
15	45573	33	15.404528568941
15	49357	34	14.997283163923
15	53059	35	15.611610493972
15	57156	36	15.973022469413
15	61405	37	15.357017857209
15	65805	38	15.120138883218
15	70688	39	15.854178044922
15	75533	40	14.974904658832
15	80695	41	15.35194088209
15	86023	42	15.707764356211
15	91457	43	15.967276746198
15	97520	44	15.078029586701
15	103494	45	15.759514968353
15	109532	46	14.983816642873
15	116203	47	11.746461931651
15	122875	48	8.7529223483446
15	130172	49	7.7430749428844
15	137436	50	10.21330878806
15	145057	51	12.388064773233
15	152953	52	13.947242298225
15	160953	53	14.877395591512
15	169671	54	15.398154164418
15	178285	55	11.071494441187
15	186904	56	8.05395827944
15	196304	57	6.5716407832037
15	205739	58	8.4158741746842
15	215964	59	10.226330445036
15	226334	60	12.757619441864
15	236729	61	15.071531961374
15	247863	62	15.338274440099
15	259118	63	14.704607561068
15	270778	64	15.822492047981
15	282693	65	15.973599648988
15	294763	66	14.829814845114
15	307788	67	15.642787345592
15	320690	68	15.294672162575
15	333651	69	15.268835741328
15	347684	70	15.551704450278
15	361617	71	14.784681392321
15	376002	72	14.781142397923
15	390813	73	15.563206831017
15	406218	74	15.188312412659
15	421858	75	15.203257501707
15	437712	76	14.808336343989
15	454131	77	15.873217932088
15	471142	78	15.293450317625
15	488147	79	15.325544635719
15	506157	80	15.148128139018
15	524220	81	15.901691321866
15	542472	82	15.256709940615
15	561686	83	15.731524503953
15	580950	84	14.888692380907
15	601219	85	15.54541546246
15	622019	86	15.719503609044
15	642587	87	15.852464992669
15	677380	88	15.303525331989
15	698679	89	14.92430683705
15	725261	90	15.656095147389
15	747066	91	15.378107225872
15	771248	92	14.19219804272
15	793040	93	10.23888572304
15	815549	94	9.8168776120386
15	838448	95	11.04791861104
15	861042	96	12.255491099409
15	883659	97	13.003744899761
15	906340	98	14.495435563934
15	928876	99	14.905606335228
15	951732	100	14.476769150669
15	974381	101	15.991900665918
15	997068	102	15.671122930688
15	1019866	103	15.109738310962
16	397	5	1593.3739804024
16	600	6	1593.3739804024
16	874	7	1593.0810451747
16	1153	8	1591.3880906765
16	1608	9	1588.2270003013
16	2062	10	1583.5886803989
16	2630	11	1577.9152328971
16	3320	12	1570.810605212
16	4011	13	1562.288733406
16	4978	14	1552.7152500648
16	5954	15	1543.8289073074
16	7086	16	1540.9729346986
16	8379	17	1542.1092388711
16	9629	18	1543.3069227246
16	11046	19	1544.5626321841
16	12604	20	1545.8205371364
16	14360	21	1547.1327973296
16	16055	22	1548.6707910133
16	18181	23	1549.3805921731
16	20288	24	1549.2932161694
16	22546	25	1548.3633630877
16	25133	26	1547.3649542764
16	27618	27	1545.1696253494
16	30283	28	1541.0293923161
16	33176	29	1536.1198922302
16	35991	30	1531.3370809837
16	39113	31	1528.0161685077
16	42333	32	1520.6271889828
16	45573	33	1510.7948576943
16	49357	34	1498.4384197453
16	53059	35	1483.276327369
16	57156	36	1469.0962043074
16	61405	37	1453.9444595787
16	65805	38	1439.1794755555
16	70688	39	1424.2957017373
16	75533	40	1408.7924445029
16	80695	41	1394.0088356281
16	86023	42	1379.7212534762
16	91457	43	1364.9192823047
16	97520	44	1349.627294925
16	103494	45	1334.973751923
16	109532	46	1319.5696871122
16	116203	47	1304.2855342612
16	122875	48	1288.9402579323
16	130172	49	1274.6639314147
16	137436	50	1259.7499405994
16	145057	51	1246.9774330302
16	152953	52	1236.3309585683
16	160953	53	1229.9834341494
16	169671	54	1221.6919244042
16	178285	55	1210.9760758782
16	186904	56	1198.0771511871
16	196304	57	1182.9256822423
16	205739	58	1168.3918738077
16	215964	59	1156.8744931461
16	226334	60	1147.3564308873
16	236729	61	1142.1197150198
16	247863	62	1135.3596748982
16	259118	63	1126.4265167916
16	270778	64	1116.0897571366
16	282693	65	1103.6234006812
16	294763	66	1089.1406806828
16	307788	67	1075.0614984328
16	320690	68	1060.686929374
16	333651	69	1046.6776492482
16	347684	70	1032.273232666
16	361617	71	1018.1925152909
16	376002	72	1003.2903488072
16	390813	73	988.76690137554
16	406218	74	974.34833144343
16	421858	75	959.64966043204
16	437712	76	945.81034164285
16	454131	77	931.17749774866
16	471142	78	916.82856982492
16	488147	79	902.61079116929
16	506157	80	888.82103494865
16	524220	81	875.34717911098
16	542472	82	862.44981463358
16	561686	83	849.45041003624
16	580950	84	836.6313522586
16	601219	85	822.89118949438
16	622019	86	809.95253887985
16	642587	87	797.1861261204
16	677380	88	783.7758528848
16	698679	89	770.44955046554
16	725261	90	756.99284594921
16	747066	91	743.29451608302
16	771248	92	729.24051125648
16	793040	93	714.73928888392
16	815549	94	700.17119618084
16	838448	95	685.35875120985
16	861042	96	670.65550001056
16	883659	97	657.6864540528
16	906340	98	649.54905604762
16	928876	99	646.54752536557
16	951732	100	636.20229597734
16	974381	101	624.28918809019
16	997068	102	612.45621975764
16	1019866	103	601.08497973351
17	397	5	916.51891571645
17	600	6	916.51891571645
17	874	7	916.8492469307
17	1153	8	918.75832327971
17	1608	9	922.09066221906
17	2062	10	926.82979108042
17	2630	11	932.62654494061
17	3320	12	939.88558416603
17	4011	13	948.59266980876
17	4978	14	958.37422264697
17	5954	15	971.03653066409
17	7086	16	985.64114470629
17	8379	17	1000.854933098
17	9629	18	1015.9558644487
17	11046	19	1031.7884084784
17	12604	20	1047.6486342594
17	14360	21	1063.4530485993
17	16055	22	1079.0477503193
17	18181	23	1091.2931135878
17	20288	24	1100.4115373199
17	22546	25	1105.0538113518
17	25133	26	1110.9865083644
17	27618	27	1119.1513423206
17	30283	28	1129.6186640525
17	33176	29	1141.4287727218
17	35991	30	1155.1079652222
17	39113	31	1169.8868522127
17	42333	32	1183.3742450929
17	45573	33	1194.4621968745
17	49357	34	1203.9537601455
17	53059	35	1207.8917557106
17	57156	36	1211.2951808538
17	61405	37	1215.4270042505
17	65805	38	1219.4603518521
17	70688	39	1223.0544317356
17	75533	40	1226.8231211589
17	80695	41	1231.1177289262
17	86023	42	1235.4863717783
17	91457	43	1240.0122967996
17	97520	44	1243.9825948639
17	103494	45	1247.4899899118
17	109532	46	1251.1770259157
17	116203	47	1254.8353604232
17	122875	48	1258.7952966541
17	130172	49	1263.8513319398
17	137436	50	1269.1331993529
17	145057	51	1273.3631382849
17	152953	52	1276.7489294867
17	160953	53	1278.7675688407
17	169671	54	1281.3879978337
17	178285	55	1284.7495452355
17	186904	56	1288.8742520618
17	196304	57	1293.7333430881
17	205739	58	1298.3943497799
17	215964	59	1302.1170043022
17	226334	60	1305.2080029261
17	236729	61	1306.9086307535
17	247863	62	1309.1254804508
17	259118	63	1312.0683217012
17	270778	64	1315.5199776744
17	282693	65	1319.6834434962
17	294763	66	1324.5203266654
17	307788	67	1329.2224378481
17	320690	68	1333.982378944
17	333651	69	1338.6690864552
17	347684	70	1343.506789865
17	361617	71	1348.2357793433
17	376002	72	1353.24065137
17	390813	73	1358.1183311261
17	406218	74	1362.960787919
17	421858	75	1368.3999045148
17	437712	76	1373.6207435407
17	454131	77	1379.1409373903
17	471142	78	1384.8610622501
17	488147	79	1390.9102277983
17	506157	80	1398.2509566446
17	524220	81	1406.212213478
17	542472	82	1413.6285132373
17	561686	83	1421.1034885593
17	580950	84	1428.4794292851
17	601219	85	1436.4551040679
17	622019	86	1443.9867551115
17	642587	87	1451.4181456674
17	677380	88	1459.2243305177
17	698679	89	1466.1179199645
17	725261	90	1472.4252714623
17	747066	91	1477.7835338131
17	771248	92	1480.5828245446
17	793040	93	1485.2230538685
17	815549	94	1488.2123634382
17	838448	95	1493.0254700852
17	861042	96	1499.2564799561
17	883659	97	1506.0885651055
17	906340	98	1511.3681033782
17	928876	99	1519.8038401547
17	951732	100	1526.1745589318
17	974381	101	1534.3811647852
17	997068	102	1544.0048339109
17	1019866	103	1553.7720703045
18	397	5	2.433438217896
18	600	6	1.3012473299867
18	874	7	2.2930843308568
18	1153	8	2.3578617253341
18	1608	9	1.7293301475234
18	2062	10	1.4997958063148
18	2630	11	1.9180873884819
18	3320	12	1.9453943046586
18	4011	13	-0.24404585955199
18	4978	14	-0.67836988780182
18	5954	15	0.17728137921076
18	7086	16	-0.080941564706153
18	8379	17	0.76956134831998
18	9629	18	-0.19247493632138
18	11046	19	-0.35200033963192
18	12604	20	-0.18557312898338
18	14360	21	0.22618693346158
18	16055	22	0.14426522334106
18	18181	23	0.14864210756496
18	20288	24	0.14922174399253
18	22546	25	0.15065414030105
18	25133	26	0.11010751985013
18	27618	27	-0.66662334280554
18	30283	28	-0.065374743728899
18	33176	29	0.12509772090707
18	35991	30	0.42678856672719
18	39113	31	-0.19345267633907
18	42333	32	-0.56243357274216
18	45573	33	0.71375758831855
18	49357	34	0.22044901363552
18	53059	35	0.062493857322261
18	57156	36	-0.89697506516241
18	61405	37	0.40367358408403
18	65805	38	0.15828682198189
18	70688	39	-0.68074433242437
18	75533	40	0.029838276980445
18	80695	41	0.12806716992054
18	86023	42	-0.045700114546344
18	91457	43	-0.027200006926432
18	97520	44	0.89684467795305
18	103494	45	-0.011906529753469
18	109532	46	-0.15289721400477
18	116203	47	-0.6154343821574
18	122875	48	0.17038133831229
18	130172	49	0.53433520146645
18	137436	50	-0.57570233580191
18	145057	51	0.70281274172012
18	152953	52	-4.2653671122769
18	160953	53	1.4068936402211
18	169671	54	2.5145522028091
18	178285	55	0.23665367141671
18	186904	56	-0.72904513780959
18	196304	57	-0.17025465832558
18	205739	58	0.53970674793236
18	215964	59	-0.67993453703821
18	226334	60	0.11831503594294
18	236729	61	0.15707980562001
18	247863	62	0.80759691353887
18	259118	63	-1.0207185247447
18	270778	64	0.75082434832584
18	282693	65	-0.66618511616503
18	294763	66	-4.1814474011525
18	307788	67	-1.3523925004371
18	320690	68	-4.0884352299152
18	333651	69	2.0085338198347
18	347684	70	1.9714749346487
18	361617	71	2.3702741913963
18	376002	72	1.8877198882168
18	390813	73	1.8588430916746
18	406218	74	-1.1288383054304
18	421858	75	-4.5
18	437712	76	-4.5
18	454131	77	-4.2266009252122
18	471142	78	-0.87091324133338
18	488147	79	-0.13636561420167
18	506157	80	-0.030389457654926
18	524220	81	-0.0035954214685523
18	542472	82	-0.00043164433575265
18	561686	83	0
18	580950	84	0
18	601219	85	0
18	622019	86	0
18	642587	87	0
18	677380	88	0
18	698679	89	1.8557649230119
18	725261	90	2.2183201522319
18	747066	91	1.7659026489127
18	771248	92	2.0955441258615
18	793040	93	1.6613763009897
18	815549	94	1.5167270320235
18	838448	95	1.4275704659522
18	861042	96	1.5594732407713
18	883659	97	1.69795234583
18	906340	98	-1.0043245672481
18	928876	99	0.43532693216111
18	951732	100	0.48533889926039
18	974381	101	-0.17041056205053
18	997068	102	-0.76934093262535
18	1019866	103	1.1506437947275
19	397	5	2.7979669365316
19	600	6	2.5478915843605
19	874	7	4.88867249557
19	1153	8	6.4762224127949
19	1608	9	6.0194594237402
19	2062	10	6.1132025748425
19	2630	11	8.3729760245707
19	3320	12	9.5865599527784
19	4011	13	1.2877217555869
19	4978	14	0.973
19	5954	15	2.7795763562936
19	7086	16	1.8414962914487
19	8379	17	5.1200665006983
19	9629	18	1.4795003553968
19	11046	19	0.973
19	12604	20	1.4689617923291
19	14360	21	2.9864363079524
19	16055	22	2.7087307743739
19	18181	23	2.7470682609725
19	20288	24	2.7717358358949
19	22546	25	2.8000900727222
19	25133	26	2.6621825579631
19	27618	27	0.973
19	30283	28	1.9197297664282
19	33176	29	2.6312215035188
19	35991	30	3.8318008389747
19	39113	31	1.4770767533103
19	42333	32	0.973
19	45573	33	4.902976454271
19	49357	34	3.0832064549336
19	53059	35	2.4884554624174
19	57156	36	0.973
19	61405	37	3.6909047994617
19	65805	38	2.803698670979
19	70688	39	0.973
19	75533	40	2.2437125514882
19	80695	41	2.6149870301941
19	86023	42	1.9802936095107
19	91457	43	2.0443498030872
19	97520	44	5.6752258877129
19	103494	45	2.1979938253815
19	109532	46	1.6468298727805
19	116203	47	0.973
19	122875	48	2.8011748714302
19	130172	49	4.2700565593685
19	137436	50	0.973
19	145057	51	4.9479172472781
19	152953	52	0.973
19	160953	53	6.3756620463324
19	169671	54	11.651466989709
19	178285	55	3.1403420701939
19	186904	56	0.973
19	196304	57	1.5240856771646
19	205739	58	4.2069337903778
19	215964	59	0.973
19	226334	60	2.558383902624
19	236729	61	2.7208109701732
19	247863	62	5.330045619084
19	259118	63	0.973
19	270778	64	5.0327149910551
19	282693	65	0.973
19	294763	66	0.973
19	307788	67	0.973
19	320690	68	0.973
19	333651	69	5.03652914683
19	347684	70	6.0408214678898
19	361617	71	8.4733383946801
19	376002	72	8.1514304128128
19	390813	73	9.0875881460025
19	406218	74	0.973
19	421858	75	0.973
19	437712	76	0.973
19	454131	77	0.973
19	471142	78	0.973
19	488147	79	0.973
19	506157	80	1.1101647719971
19	524220	81	1.1100204485044
19	542472	82	0.973
19	561686	83	0.973
19	580950	84	0.973
19	601219	85	0.973
19	622019	86	0.973
19	642587	87	0.973
19	677380	88	0.973
19	698679	89	2.0300835847245
19	725261	90	3.4908483721625
19	747066	91	3.8955174124221
19	771248	92	5.5466247517613
19	793040	93	5.4971290860964
19	815549	94	5.8353087088375
19	838448	95	6.2119380654565
19	861042	96	7.3487137416404
19	883659	97	8.701305241941
19	906340	98	0.973
19	928876	99	3.7687941365937
19	951732	100	4.0647384993731
19	974381	101	1.5684538679756
19	997068	102	0.973
19	1019866	103	6.6677366739655
20	397	5	1.6980901245028
20	600	6	2.4593247350771
20	874	7	2.178188218642
20	1153	8	1.9765617014607
20	1608	9	1.8873011167394
20	2062	10	2.4539943669923
20	2630	11	0.38054995950155
20	3320	12	-0.041746971802786
20	4011	13	-0.23654850299936
20	4978	14	1.0415893885307
20	5954	15	-0.3567601544084
20	7086	16	-0.529308492993
20	8379	17	0.25042078816332
20	9629	18	0.21044062939472
20	11046	19	-3.7143797033497
20	12604	20	-0.92492528118433
20	14360	21	-4.5
20	16055	22	1.3368473113747
20	18181	23	2.3995883058989
20	20288	24	2.4864454656141
20	22546	25	1.8044763513375
20	25133	26	1.4276640661162
20	27618	27	-0.18728192404378
20	30283	28	-0.5486037308583
20	33176	29	0.7645071813371
20	35991	30	-0.64155317402911
20	39113	31	0.28636649530381
20	42333	32	-0.32347325989976
[...]
311	928876	99	2.2256264461204
311	951732	100	2.1653265996138
311	974381	101	2.1385931282537
311	997068	102	1.8847460724413
311	1019866	103	1.0689243267146
312	524220	81	2.6499773106887
312	542472	82	3.2066497523639
312	561686	83	4.7312391474484
312	580950	84	6.513875402022
312	601219	85	6.4075664707704
312	622019	86	8.4555794780165
312	642587	87	10.564440775188
312	677380	88	1.0533632098487
312	698679	89	3.2402868166533
312	725261	90	1.4564261808624
312	747066	91	5.635560485686
312	771248	92	0.973
312	793040	93	2.1691183052585
312	815549	94	2.3708915626997
312	838448	95	0.973
312	861042	96	0.973
312	883659	97	0.973
312	906340	98	0.973
312	928876	99	5.6453191732067
312	951732	100	6.8144166768557
312	974381	101	8.0272549187495
312	997068	102	8.3282729435247
312	1019866	103	5.9887929347906
313	524220	81	1.8528750397498
313	542472	82	1.6249717066996
313	561686	83	1.4293128887424
313	580950	84	2.1322389477398
313	601219	85	1.7915048207855
313	622019	86	2.0452886846149
313	642587	87	1.5832803744124
313	677380	88	1.7776291683574
313	698679	89	-0.31612005038187
313	725261	90	-0.002556471130811
313	747066	91	-0.05071074103471
313	771248	92	-0.11962674048264
313	793040	93	-0.0074831424048174
313	815549	94	0.989246960124
313	838448	95	-0.04421301188413
313	861042	96	-0.7535435864469
313	883659	97	0.60556924417615
313	906340	98	-0.54784868420102
313	928876	99	-0.2175275193993
313	951732	100	0.20436096012127
313	974381	101	-0.33903890224174
313	997068	102	1.2319009873085
313	1019866	103	0.024088177015074
314	524220	81	2.5619104382876
314	542472	82	3.1221579717501
314	561686	83	3.479749461653
314	580950	84	5.7216223171485
314	601219	85	5.9555046321848
314	622019	86	7.7362186605203
314	642587	87	7.1571899744096
314	677380	88	8.7411525368535
314	698679	89	0.973
314	725261	90	2.1356196531255
314	747066	91	1.9566205931586
314	771248	92	1.698742413229
314	793040	93	2.0986076493323
314	815549	94	6.0058093708277
314	838448	95	2.0642119579135
314	861042	96	0.973
314	883659	97	4.4937540253562
314	906340	98	0.973
314	928876	99	1.3503362401845
314	951732	100	2.8927102177223
314	974381	101	0.973
314	997068	102	6.9881369957812
314	1019866	103	2.3494205523035
315	542472	82	1593.3739804024
315	561686	83	1593.3739804024
315	580950	84	1592.244738111
315	601219	85	1589.9447921363
315	622019	86	1586.5372302097
315	642587	87	1581.7227023859
315	677380	88	1575.6618573931
315	698679	89	1568.1701717437
315	725261	90	1559.0564287744
315	747066	91	1548.3828983778
315	771248	92	1542.0191636656
315	793040	93	1541.3843996654
315	815549	94	1542.5476099444
315	838448	95	1543.7669806146
315	861042	96	1544.9556753015
315	883659	97	1546.1408541748
315	906340	98	1547.4954345519
315	928876	99	1548.8309494752
315	951732	100	1549.3702352757
315	974381	101	1549.3961142569
315	997068	102	1548.5023008258
315	1019866	103	1547.4671131784
316	542472	82	916.51891571645
316	561686	83	916.51891571645
316	580950	84	917.79231659821
316	601219	85	920.33553600212
316	622019	86	923.81715766968
316	642587	87	928.73632414455
316	677380	88	934.92889516891
316	698679	89	942.58340465257
316	725261	90	951.89522515003
316	747066	91	962.92754656445
316	771248	92	977.17210083965
316	793040	93	991.71583762439
316	815549	94	1006.3821107962
316	838448	95	1021.7564791882
316	861042	96	1036.7440711235
316	883659	97	1051.6873341156
316	906340	98	1067.1300593531
316	928876	99	1080.6716994081
316	951732	100	1090.9528516177
316	974381	101	1099.8978205523
316	997068	102	1104.3601673057
316	1019866	103	1110.2762607598
317	542472	82	2103.2782741811
317	561686	83	2103.2782741811
317	580950	84	2101.8011175929
317	601219	85	2098.2192984818
317	622019	86	2092.7661346865
317	642587	87	2084.7242533467
317	677380	88	2074.9427538144
317	698679	89	2063.6781191051
317	725261	90	2049.8384014387
317	747066	91	2034.323278163
317	771248	92	2019.4410199845
317	793040	93	2003.8788293506
317	815549	94	1988.4854079707
317	838448	95	1973.1334781018
317	861042	96	1957.8084537876
317	883659	97	1942.4599537097
317	906340	98	1927.4742414916
317	928876	99	1911.6061387887
317	951732	100	1895.7034596832
317	974381	101	1879.9642779109
317	997068	102	1864.6088512241
317	1019866	103	1849.8722249296
318	542472	82	1098.1171513867
318	561686	83	1098.1171513867
318	580950	84	1098.155277277
318	601219	85	1098.2477251892
318	622019	86	1098.3884731143
318	642587	87	1098.5960366783
318	677380	88	1098.8485003517
318	698679	89	1099.1392442248
318	725261	90	1099.1330707966
318	747066	91	1098.6034197372
318	771248	92	1098.240218138
318	793040	93	1098.6182470603
318	815549	94	1099.1929734427
318	838448	95	1103.5909325331
318	861042	96	1104.7737840547
318	883659	97	1105.9584475371
318	906340	98	1107.1033157793
318	928876	99	1107.3720914603
318	951732	100	1107.6638207125
318	974381	101	1108.2083767373
318	997068	102	1107.7537356651
318	1019866	103	1107.4291517297
319	561686	83	1.6815561300609
319	580950	84	3.3884546612622
319	601219	85	4.8132078641094
319	622019	86	6.8005581945647
319	642587	87	8.5609909402905
319	677380	88	10.58206455512
319	698679	89	12.873233201983
319	725261	90	15.177575391252
319	747066	91	15.528046028991
319	771248	92	15.502210021811
319	793040	93	14.756497188611
319	815549	94	15.468948470685
319	838448	95	15.079792641662
319	861042	96	15.035190995527
319	883659	97	15.549305221625
319	906340	98	13.64818762188
319	928876	99	10.512386951141
319	951732	100	9.1345644357296
319	974381	101	4.6345644357296
319	997068	102	6.1214821130418
319	1019866	103	8.1328951941951
320	561686	83	1.4761767367367
320	580950	84	3.579443160817
320	601219	85	5.4495465144049
320	622019	86	8.0365468688309
320	642587	87	9.775011109584
320	677380	88	11.257162469346
320	698679	89	13.832048092363
320	725261	90	15.508698570379
320	747066	91	14.875383472815
320	771248	92	15.551276335074
320	793040	93	15.392789090308
320	815549	94	15.729347229213
320	838448	95	15.386128835101
320	861042	96	15.409698202228
320	883659	97	15.044909098907
320	906340	98	15.886407074612
320	928876	99	15.921600116277
320	951732	100	15.764504701761
320	974381	101	15.388096498302
320	997068	102	14.7630368029
320	1019866	103	15.540821935446
321	580950	84	1593.3739804024
321	601219	85	1593.3739804024
321	622019	86	1593.3403968298
321	642587	87	1592.4018047241
321	677380	88	1589.7033019285
321	698679	89	1585.9355401671
321	725261	90	1580.9663037159
321	747066	91	1574.4778901798
321	771248	92	1566.1924555412
321	793040	93	1556.9458945786
321	815549	94	1547.073713113
321	838448	95	1541.4365017612
321	861042	96	1541.5334181743
321	883659	97	1542.7676210078
321	906340	98	1544.0098414856
321	928876	99	1545.2026025543
321	951732	100	1546.3832594472
321	974381	101	1547.7286228926
321	997068	102	1549.0712358918
321	1019866	103	1549.4315018957
322	580950	84	916.51891571645
322	601219	85	916.51891571645
322	622019	86	916.55678655368
322	642587	87	917.61519892814
322	677380	88	920.58227474324
322	698679	89	924.43192480655
322	725261	90	929.50916233658
322	747066	91	936.1385946527
322	771248	92	944.60410441721
322	793040	93	954.05162956602
322	815549	94	965.25872427898
322	838448	95	979.79033324137
322	861042	96	993.594729341
322	883659	97	1009.1561082543
322	906340	98	1024.818577196
322	928876	99	1039.857439883
322	951732	100	1054.7518601687
322	974381	101	1069.4945050961
322	997068	102	1083.337646065
322	1019866	103	1092.965684231
323	580950	84	2103.2782741811
323	601219	85	2103.2782741811
323	622019	86	2103.2353758586
323	642587	87	2101.0373981053
323	677380	88	2096.9110133534
323	698679	89	2091.2264043841
323	725261	90	2083.6800758637
323	747066	91	2074.4500172499
323	771248	92	2063.7564379767
323	793040	93	2051.0804434957
323	815549	94	2036.1397231574
323	838448	95	2020.7901455726
323	861042	96	2004.9115668164
323	883659	97	1989.6151896733
323	906340	98	1974.6656315982
323	928876	99	1960.1939094815
323	951732	100	1945.530456039
323	974381	101	1929.8761529904
323	997068	102	1915.1927776701
323	1019866	103	1899.5746729659
324	580950	84	1098.1171513867
324	601219	85	1098.1171513867
324	622019	86	1098.1182586063
324	642587	87	1098.1749891245
324	677380	88	1098.2814924525
324	698679	89	1098.4282140525
324	725261	90	1098.6229872376
324	747066	91	1098.8612180422
324	771248	92	1099.1372227893
324	793040	93	1099.1754712906
324	815549	94	1098.6654290425
324	838448	95	1098.2074458565
324	861042	96	1098.5931603202
324	883659	97	1099.1057450839
324	906340	98	1100.2599728537
324	928876	99	1104.5896642882
324	951732	100	1105.7214529146
324	974381	101	1106.9297195901
324	997068	102	1107.3113405737
324	1019866	103	1107.5758817608
325	580950	84	1.7068985312013
325	601219	85	1.4247532028472
325	622019	86	1.9873503304552
325	642587	87	1.7604327457258
325	677380	88	2.0210736148292
325	698679	89	2.2911686468637
325	725261	90	2.3043421892682
325	747066	91	0.35047063773964
325	771248	92	-0.025836007180624
325	793040	93	-0.74571283319965
325	815549	94	0.71245128207374
325	838448	95	-0.38915582902264
325	861042	96	-0.044601646135561
325	883659	97	0.51411422609817
325	906340	98	-1.9011175997446
325	928876	99	-3.1358006707393
325	951732	100	-1.3778225154112
325	974381	101	-4.5
325	997068	102	1.4869176773122
325	1019866	103	2.0114130811533
326	580950	84	2.6709363865476
326	601219	85	3.0051797101673
326	622019	86	4.7242500266747
326	642587	87	5.2130671531673
326	677380	88	6.8842446521343
326	698679	89	9.0363159547448
326	725261	90	10.593962284584
326	747066	91	3.5165030168717
326	771248	92	2.105457016563
326	793040	93	0.973
326	815549	94	4.8541963327401
326	838448	95	0.973
326	861042	96	1.9876626277987
326	883659	97	4.1339818674037
326	906340	98	0.973
326	928876	99	0.973
326	951732	100	0.973
326	974381	101	0.973
326	997068	102	3.6201065893947
326	1019866	103	5.494450791372
327	580950	84	2.1032664240804
327	601219	85	1.8701033535879
327	622019	86	2.587000354426
327	642587	87	1.7384642407531
327	677380	88	1.4821513597621
327	698679	89	2.5748856230173
327	725261	90	1.6766504780157
327	747066	91	-0.6333150975639
327	771248	92	0.67589286225848
327	793040	93	-0.15848724476527
327	815549	94	0.33655813890509
327	838448	95	-0.34321839411277
327	861042	96	0.023569367127493
327	883659	97	-0.3647891033208
327	906340	98	0.84149797570426
327	928876	99	0.03519304166548
327	951732	100	-0.15709541451652
327	974381	101	-0.37640820345841
327	997068	102	-0.62505969540216
327	1019866	103	0.77778513254598
328	580950	84	3.1012829048068
328	601219	85	3.8439194234252
328	622019	86	6.5561546489506
328	642587	87	5.7632646352269
328	677380	88	5.8058698466741
328	698679	89	10.605173676607
328	725261	90	8.4693692307876
328	747066	91	0.973
328	771248	92	4.7407765622612
328	793040	93	1.6015323466596
328	815549	94	3.5041039906785
328	838448	95	0.973
328	861042	96	2.278924158995
328	883659	97	0.973
328	906340	98	5.4685216093127
328	928876	99	2.3859462757558
328	951732	100	1.6355565563105
328	974381	101	0.973
328	997068	102	0.973
328	1019866	103	5.1194901058319
329	601219	85	0.050009340658908
329	622019	86	1.3976586964039
329	642587	87	3.9634495609497
329	677380	88	5.3219929469806
329	698679	89	7.0190853403705
329	725261	90	9.1649348508624
329	747066	91	11.703241208504
329	771248	92	13.060839655931
329	793040	93	14.837985432736
329	815549	94	15.544488999434
329	838448	95	14.734661244089
329	861042	96	15.657109443867
329	883659	97	15.758821358136
329	906340	98	15.131378800888
329	928876	99	14.985996641731
329	951732	100	14.849027527357
329	974381	101	13.973647063736
329	997068	102	9.8546269991416
329	1019866	103	7.9313241123431
330	601219	85	0.042869866463222
330	622019	86	2.19651975507
330	642587	87	4.123647571598
330	677380	88	5.680838162369
330	698679	89	7.5413227675351
330	725261	90	9.2239359818034
330	747066	91	10.686485834989
330	771248	92	12.668787276289
330	793040	93	14.934533489226
330	815549	94	15.342896889988
330	838448	95	15.867442563502
330	861042	96	15.292786844028
330	883659	97	14.979115160857
330	906340	98	14.873409247515
330	928876	99	14.721920122812
330	951732	100	15.716720482172
330	974381	101	14.706564658624
330	997068	102	15.636120695062
330	1019866	103	15.930462773191
331	622019	86	1.3476493557449
331	642587	87	2.5657908645459
331	677380	88	1.3585433860309
331	698679	89	1.6970923933899
331	725261	90	2.1458495104918
331	747066	91	2.5383063576417
331	771248	92	1.3575984474272
331	793040	93	1.7771457768045
331	815549	94	0.70650356669805
331	838448	95	-0.80982775534503
331	861042	96	0.92244819977786
331	883659	97	0.10171191426925
331	906340	98	-0.62744255724829
331	928876	99	-0.14538215915672
331	951732	100	-0.13696911437437
331	974381	101	-0.87538046362069
331	997068	102	-4.1190200645942
331	1019866	103	-1.9233028867985
332	622019	86	1.6316117493835
332	642587	87	3.7577696849343
332	677380	88	3.123126106501
332	698679	89	4.3513472709064
332	725261	90	6.3628749979073
332	747066	91	8.9818877546453
332	771248	92	6.2191356814394
332	793040	93	8.482561741454
332	815549	94	4.8535633293035
332	838448	95	0.973
332	861042	96	5.7006056764161
332	883659	97	2.6180243992793
332	906340	98	0.973
332	928876	99	1.6187649548102
332	951732	100	1.6386164254269
332	974381	101	0.973
332	997068	102	0.973
332	1019866	103	0.973
333	622019	86	2.1536498886067
333	642587	87	1.9271278165281
333	677380	88	1.5571905907709
333	698679	89	1.8604846051661
333	725261	90	1.6826132142683
333	747066	91	1.4625498531852
333	771248	92	1.9823014413007
333	793040	93	2.2657462129369
333	815549	94	0.40836340076211
333	838448	95	0.52454567351379
333	861042	96	-0.57465571947396
333	883659	97	-0.31367168317083
333	906340	98	-0.10570591334254
333	928876	99	-0.15148912470322
333	951732	100	0.99480035935994
333	974381	101	-1.0101558235474
333	997068	102	0.92955603643786
333	1019866	103	0.29434207812883
334	622019	86	2.3569979232081
334	642587	87	3.2305802281581
334	677380	88	3.5329012017402
334	698679	89	4.8947675777243
334	725261	90	5.3678562152388
334	747066	91	5.5049698299767
334	771248	92	7.9612964844888
334	793040	93	10.293081102705
334	815549	94	3.6937742497744
334	838448	95	4.2503932734706
334	861042	96	0.973
334	883659	97	1.0107264101978
334	906340	98	1.7525427902949
334	928876	99	1.5774629394947
334	951732	100	5.994849196966
334	974381	101	0.973
334	997068	102	5.7202876298545
334	1019866	103	3.3820077004373
335	642587	87	2103.2782741811
335	677380	88	2103.2782741811
335	698679	89	2102.0414828621
335	725261	90	2098.2901652329
335	747066	91	2092.0407044017
335	771248	92	2083.2846411552
335	793040	93	2072.2195982186
335	815549	94	2059.0115214714
335	838448	95	2043.8965858596
335	861042	96	2028.8890383596
335	883659	97	2013.0677835697
335	906340	98	1997.3168439867
335	928876	99	1982.4701808627
335	951732	100	1967.2024752089
335	974381	101	1952.6982319933
335	997068	102	1937.2355379722
335	1019866	103	1923.0834138208
336	642587	87	1098.1171513867
336	677380	88	1098.1171513867
336	698679	89	1098.1490733715
336	725261	90	1098.2458960954
336	747066	91	1098.4071967051
336	771248	92	1098.6331935356
336	793040	93	1098.9187858803
336	815549	94	1102.4595773378
336	838448	95	1102.1306925448
336	861042	96	1101.6185196969
336	883659	97	1101.5959319467
336	906340	98	1101.9810143406
336	928876	99	1102.8702855154
336	951732	100	1104.0487129354
336	974381	101	1105.1682130292
336	997068	102	1106.361690493
336	1019866	103	1107.1776881047
337	677380	88	1.235970910521
337	698679	89	3.7488292444719
337	725261	90	6.2453153375991
337	747066	91	8.7502550327906
337	771248	92	11.057703093112
337	793040	93	13.373415318782
337	815549	94	15.138227165559
337	838448	95	15.031450261385
337	861042	96	15.843948270055
337	883659	97	15.771558553656
337	906340	98	14.892826044024
337	928876	99	15.328581631569
337	951732	100	14.562075086792
337	974381	101	15.524347463902
337	997068	102	14.195555004949
337	1019866	103	15.785787790362
338	698679	89	2.5128583339509
338	725261	90	2.4964860931272
338	747066	91	2.5049396951916
338	771248	92	2.3074480603216
338	793040	93	2.31571222567
338	815549	94	1.7648118467769
338	838448	95	-0.10677690417392
338	861042	96	0.81249800866935
338	883659	97	-0.072389716398902
338	906340	98	-0.87873250963166
338	928876	99	0.43575558754551
338	951732	100	-0.76650654477749
338	974381	101	0.9622723771101
338	997068	102	-1.3287924589529
338	1019866	103	1.5902327854126
339	698679	89	3.5659972150661
339	725261	90	5.1912904087635
339	747066	91	6.8764498898947
339	771248	92	7.9174582517511
339	793040	93	9.4396109521878
339	815549	94	8.5993312843755
339	838448	95	1.7620532742258
339	861042	96	5.3441677059161
339	883659	97	1.9580775704829
339	906340	98	0.973
339	928876	99	3.7919336846791
339	951732	100	0.973
339	974381	101	5.8047404035832
339	997068	102	0.973
339	1019866	103	8.284736775418
340	725261	90	2103.2782741811
340	747066	91	2103.2782741811
340	771248	92	2101.5720796228
340	793040	93	2098.3660191166
340	815549	94	2092.7024871742
340	838448	95	2084.7598870705
340	861042	96	2075.3740018373
340	883659	97	2063.5896074689
340	906340	98	2050.1354707264
340	928876	99	2034.9411985074
340	951732	100	2019.8747462897
340	974381	101	2005.1248355295
340	997068	102	1990.132671448
340	1019866	103	1974.5537956099
341	725261	90	1098.1171513867
341	747066	91	1098.1171513867
341	771248	92	1098.1611888213
341	793040	93	1098.2439382821
341	815549	94	1098.3901158773
341	838448	95	1098.5951169604
341	861042	96	1098.8373697005
341	883659	97	1099.1415287388
341	906340	98	1099.1432120672
341	928876	99	1098.6245141339
341	951732	100	1098.2296822764
341	974381	101	1098.5879797037
341	997068	102	1099.0657912718
341	1019866	103	1100.2686075039
342	747066	91	1.7050627776887
342	771248	92	3.2039338102331
342	793040	93	5.659775116574
342	815549	94	7.9373314896366
342	838448	95	9.3796592357336
342	861042	96	11.776577353082
342	883659	97	13.446648895741
342	906340	98	15.187980375905
342	928876	99	15.059625822678
342	951732	100	14.739566141181
342	974381	101	14.987401085556
342	997068	102	15.609677161323
342	1019866	103	14.744139467343
343	771248	92	1.4988710325444
343	793040	93	2.4558413063409
343	815549	94	2.2775563730625
343	838448	95	1.442327746097
343	861042	96	2.3969181173481
343	883659	97	1.6700715426588
343	906340	98	1.7413314801641
343	928876	99	-0.12835455322638
343	951732	100	-0.32005968149751
343	974381	101	0.24783494437579
343	997068	102	0.62227607576642
343	1019866	103	-0.86553769398015
344	771248	92	2.4249463579349
344	793040	93	4.7495576251823
344	815549	94	5.8958225073407
344	838448	95	4.8990849641068
344	861042	96	8.6318069753762
344	883659	97	7.3953736242461
344	906340	98	8.5401173712861
344	928876	99	1.6861417389487
344	951732	100	0.973
344	974381	101	3.039156806523
344	997068	102	4.555332959664
344	1019866	103	0.973
345	793040	93	2103.2782741811
345	815549	94	2103.2782741811
345	838448	95	2101.5522206901
345	861042	96	2097.8955006331
345	883659	97	2092.4879977701
345	906340	98	2084.5078179116
345	928876	99	2075.1614796185
345	951732	100	2064.128594663
345	974381	101	2051.4469731067
345	997068	102	2037.2023205109
345	1019866	103	2022.4546300438
346	793040	93	1098.1171513867
346	815549	94	1098.1171513867
346	838448	95	1098.1617013867
346	861042	96	1098.2560825167
346	883659	97	1098.3956519183
346	906340	98	1098.6016229471
346	928876	99	1098.8428549678
346	951732	100	1099.1276173046
346	974381	101	1099.1879837788
346	997068	102	1098.701703702
346	1019866	103	1098.1982510551
347	815549	94	1.7249085372081
347	838448	95	3.654294422199
347	861042	96	5.403915870632
347	883659	97	7.9748863163404
347	906340	98	9.3401385286124
347	928876	99	11.025566443498
347	951732	100	12.674319263967
347	974381	101	14.238753983588
347	997068	102	14.741583550419
347	1019866	103	15.172414276516
348	838448	95	1.9293858849909
348	861042	96	1.749621448433
348	883659	97	2.5709704457084
348	906340	98	1.365252212272
348	928876	99	1.6854279148858
348	951732	100	1.6487528204685
348	974381	101	1.5644347196212
348	997068	102	0.50282956683077
348	1019866	103	0.43083072609734
349	838448	95	2.9899722793455
349	861042	96	3.6638714320371
349	883659	97	6.4828329478633
349	906340	98	4.7089865363449
349	928876	99	6.2441431300522
349	951732	100	6.9456244273829
349	974381	101	7.4319762542334
349	997068	102	3.9034884513273
349	1019866	103	3.7399259384677

