version 2
run WithBeaconing-0-20200806-15:56:41-71640
attr configname WithBeaconing
attr datetime 20200806-15:56:41
attr experiment WithBeaconing
attr inifile omnetpp.ini
attr iterationvars ""
attr iterationvarsf ""
attr measurement ""
attr network RSUExampleCatania
attr processid 71640
attr repetition 0
attr replication #0
attr resultdir results
attr runnumber 0
attr seedset 0
param *.rsu[*].appl.sendBeacons true
param *.node[*].appl.sendBeacons true
param *.playgroundSizeX 3000m
param *.playgroundSizeY 3000m
param *.playgroundSizeZ 50m
param *.annotations.draw true
param *.obstacles.obstacles "xmldoc(\"config.xml\", \"//AnalogueModel[@type='SimpleObstacleShadowing']/obstacles\")"
param *.manager.updateInterval 1s
param *.manager.host "\"localhost\""
param *.manager.port 9999
param *.manager.autoShutdown true
param *.manager.launchConfig "xmldoc(\"catania.launchd.xml\")"
param *.rsu[0].mobility.x 2000
param *.rsu[0].mobility.y 2000
param *.rsu[0].mobility.z 3
param *.rsu[*].applType "\"TraCIDemoRSU11p\""
param *.rsu[*].appl.headerLength "80 bit"
param *.rsu[*].appl.sendBeacons false
param *.rsu[*].appl.dataOnSch false
param *.rsu[*].appl.beaconInterval 1s
param *.rsu[*].appl.beaconUserPriority 7
param *.rsu[*].appl.dataUserPriority 5
param *.rsu[*].nic.phy80211p.antennaOffsetZ "0 m"
param *.connectionManager.sendDirect true
param *.connectionManager.maxInterfDist 2600m
param *.connectionManager.drawMaxIntfDist false
param *.**.nic.mac1609_4.useServiceChannel false
param *.**.nic.mac1609_4.txPower 20mW
param *.**.nic.mac1609_4.bitrate 6Mbps
param *.**.nic.phy80211p.minPowerLevel -110dBm
param *.**.nic.phy80211p.useNoiseFloor true
param *.**.nic.phy80211p.noiseFloor -98dBm
param *.**.nic.phy80211p.decider "xmldoc(\"config.xml\")"
param *.**.nic.phy80211p.analogueModels "xmldoc(\"config.xml\")"
param *.**.nic.phy80211p.usePropagationDelay true
param *.**.nic.phy80211p.antenna "xmldoc(\"antenna.xml\", \"/root/Antenna[@id='monopole']\")"
param *.node[*].nic.phy80211p.antennaOffsetY "0 m"
param *.node[*].nic.phy80211p.antennaOffsetZ "1000 m"
param *.node[*].applType "\"TraCIDemo11p\""
param *.node[*].appl.headerLength "80 bit"
param *.node[*].appl.sendBeacons false
param *.node[*].appl.dataOnSch false
param *.node[*].appl.beaconInterval 1s
param *.node[*].veinsmobility.x 0
param *.node[*].veinsmobility.y 0
param *.node[*].veinsmobility.z 0
param *.node[*].veinsmobility.setHostSpeed false
param *.node[*0].veinsmobility.accidentCount 1
param *.node[*0].veinsmobility.accidentStart 73s
param *.node[*0].veinsmobility.accidentDuration 50s

scalar RSUExampleCatania.node[0].appl generatedWSMs 1
scalar RSUExampleCatania.node[0].appl receivedWSMs 46
scalar RSUExampleCatania.node[0].appl generatedBSMs 102
scalar RSUExampleCatania.node[0].appl receivedBSMs 2587
scalar RSUExampleCatania.node[0].appl generatedWSAs 0
scalar RSUExampleCatania.node[0].appl receivedWSAs 0
scalar RSUExampleCatania.node[0].nic.phy80211p busyTime 0.0030373422870268
scalar RSUExampleCatania.node[0].nic.mac1609_4 ReceivedUnicastPackets 0
scalar RSUExampleCatania.node[0].nic.mac1609_4 ReceivedBroadcasts 2633
scalar RSUExampleCatania.node[0].nic.mac1609_4 SentPackets 103
scalar RSUExampleCatania.node[0].nic.mac1609_4 SentAcknowledgements 0
scalar RSUExampleCatania.node[0].nic.mac1609_4 SNIRLostPackets 290
scalar RSUExampleCatania.node[0].nic.mac1609_4 RXTXLostPackets 0
scalar RSUExampleCatania.node[0].nic.mac1609_4 TotalLostPackets 290
scalar RSUExampleCatania.node[0].nic.mac1609_4 DroppedPacketsInMac 0
scalar RSUExampleCatania.node[0].nic.mac1609_4 TooLittleTime 0
scalar RSUExampleCatania.node[0].nic.mac1609_4 TimesIntoBackoff 103
scalar RSUExampleCatania.node[0].nic.mac1609_4 SlotsBackoff 170
scalar RSUExampleCatania.node[0].nic.mac1609_4 NumInternalContention 0
scalar RSUExampleCatania.node[0].nic.mac1609_4 totalBusyTime 0.321335
scalar RSUExampleCatania.node[0].veinsmobility startTime 1
scalar RSUExampleCatania.node[0].veinsmobility totalTime 102
scalar RSUExampleCatania.node[0].veinsmobility stopTime 103.19197267485
scalar RSUExampleCatania.node[0].veinsmobility minSpeed 0
scalar RSUExampleCatania.node[0].veinsmobility maxSpeed 15.973970669392
scalar RSUExampleCatania.node[0].veinsmobility totalDistance 997.10260827096
scalar RSUExampleCatania.node[0].veinsmobility totalCO2Emission 257.42773253852
scalar RSUExampleCatania.node[2].appl generatedWSMs 1
scalar RSUExampleCatania.node[2].appl receivedWSMs 45
scalar RSUExampleCatania.node[2].appl generatedBSMs 100
scalar RSUExampleCatania.node[2].appl receivedBSMs 2620
scalar RSUExampleCatania.node[2].appl generatedWSAs 0
scalar RSUExampleCatania.node[2].appl receivedWSAs 0
scalar RSUExampleCatania.node[2].nic.phy80211p busyTime 0.0031454815349605
scalar RSUExampleCatania.node[2].nic.mac1609_4 ReceivedUnicastPackets 0
scalar RSUExampleCatania.node[2].nic.mac1609_4 ReceivedBroadcasts 2665
scalar RSUExampleCatania.node[2].nic.mac1609_4 SentPackets 101
scalar RSUExampleCatania.node[2].nic.mac1609_4 SentAcknowledgements 0
scalar RSUExampleCatania.node[2].nic.mac1609_4 SNIRLostPackets 305
scalar RSUExampleCatania.node[2].nic.mac1609_4 RXTXLostPackets 0
scalar RSUExampleCatania.node[2].nic.mac1609_4 TotalLostPackets 305
scalar RSUExampleCatania.node[2].nic.mac1609_4 DroppedPacketsInMac 0
scalar RSUExampleCatania.node[2].nic.mac1609_4 TooLittleTime 0
scalar RSUExampleCatania.node[2].nic.mac1609_4 TimesIntoBackoff 101
scalar RSUExampleCatania.node[2].nic.mac1609_4 SlotsBackoff 162
scalar RSUExampleCatania.node[2].nic.mac1609_4 NumInternalContention 0
scalar RSUExampleCatania.node[2].nic.mac1609_4 totalBusyTime 0.325885
scalar RSUExampleCatania.node[2].veinsmobility startTime 3
scalar RSUExampleCatania.node[2].veinsmobility totalTime 100
scalar RSUExampleCatania.node[2].veinsmobility stopTime 103.19197267485
scalar RSUExampleCatania.node[2].veinsmobility minSpeed 0
scalar RSUExampleCatania.node[2].veinsmobility maxSpeed 15.92586479981
scalar RSUExampleCatania.node[2].veinsmobility totalDistance 1170.28499677
scalar RSUExampleCatania.node[2].veinsmobility totalCO2Emission 311.04866121773
scalar RSUExampleCatania.node[21].appl generatedWSMs 1
scalar RSUExampleCatania.node[21].appl receivedWSMs 46
scalar RSUExampleCatania.node[21].appl generatedBSMs 76
scalar RSUExampleCatania.node[21].appl receivedBSMs 2486
scalar RSUExampleCatania.node[21].appl generatedWSAs 0
scalar RSUExampleCatania.node[21].appl receivedWSAs 0
scalar RSUExampleCatania.node[21].nic.phy80211p busyTime 0.0041446885926901
scalar RSUExampleCatania.node[21].nic.mac1609_4 ReceivedUnicastPackets 0
scalar RSUExampleCatania.node[21].nic.mac1609_4 ReceivedBroadcasts 2532
scalar RSUExampleCatania.node[21].nic.mac1609_4 SentPackets 77
scalar RSUExampleCatania.node[21].nic.mac1609_4 SentAcknowledgements 0
scalar RSUExampleCatania.node[21].nic.mac1609_4 SNIRLostPackets 438
scalar RSUExampleCatania.node[21].nic.mac1609_4 RXTXLostPackets 0
scalar RSUExampleCatania.node[21].nic.mac1609_4 TotalLostPackets 438
scalar RSUExampleCatania.node[21].nic.mac1609_4 DroppedPacketsInMac 0
scalar RSUExampleCatania.node[21].nic.mac1609_4 TooLittleTime 0
scalar RSUExampleCatania.node[21].nic.mac1609_4 TimesIntoBackoff 77
scalar RSUExampleCatania.node[21].nic.mac1609_4 SlotsBackoff 107
scalar RSUExampleCatania.node[21].nic.mac1609_4 NumInternalContention 0
scalar RSUExampleCatania.node[21].nic.mac1609_4 totalBusyTime 0.321717
scalar RSUExampleCatania.node[21].veinsmobility startTime 27
scalar RSUExampleCatania.node[21].veinsmobility totalTime 76
scalar RSUExampleCatania.node[21].veinsmobility stopTime 103.19197267485
scalar RSUExampleCatania.node[21].veinsmobility minSpeed 0.4492028585561
scalar RSUExampleCatania.node[21].veinsmobility maxSpeed 15.984830047376
scalar RSUExampleCatania.node[21].veinsmobility totalDistance 984.31208672827
scalar RSUExampleCatania.node[21].veinsmobility totalCO2Emission 222.30095333738
scalar RSUExampleCatania.node[23].appl generatedWSMs 1
scalar RSUExampleCatania.node[23].appl receivedWSMs 47
scalar RSUExampleCatania.node[23].appl generatedBSMs 73
scalar RSUExampleCatania.node[23].appl receivedBSMs 2350
scalar RSUExampleCatania.node[23].appl generatedWSAs 0
scalar RSUExampleCatania.node[23].appl receivedWSAs 0
scalar RSUExampleCatania.node[23].nic.phy80211p busyTime 0.0042530347061813
scalar RSUExampleCatania.node[23].nic.mac1609_4 ReceivedUnicastPackets 0
scalar RSUExampleCatania.node[23].nic.mac1609_4 ReceivedBroadcasts 2397
scalar RSUExampleCatania.node[23].nic.mac1609_4 SentPackets 74
scalar RSUExampleCatania.node[23].nic.mac1609_4 SentAcknowledgements 0
scalar RSUExampleCatania.node[23].nic.mac1609_4 SNIRLostPackets 526
scalar RSUExampleCatania.node[23].nic.mac1609_4 RXTXLostPackets 0
scalar RSUExampleCatania.node[23].nic.mac1609_4 TotalLostPackets 526
scalar RSUExampleCatania.node[23].nic.mac1609_4 DroppedPacketsInMac 0
scalar RSUExampleCatania.node[23].nic.mac1609_4 TooLittleTime 0
scalar RSUExampleCatania.node[23].nic.mac1609_4 TimesIntoBackoff 74
scalar RSUExampleCatania.node[23].nic.mac1609_4 SlotsBackoff 113
scalar RSUExampleCatania.node[23].nic.mac1609_4 NumInternalContention 0
scalar RSUExampleCatania.node[23].nic.mac1609_4 totalBusyTime 0.316794
scalar RSUExampleCatania.node[23].veinsmobility startTime 30
scalar RSUExampleCatania.node[23].veinsmobility totalTime 73
scalar RSUExampleCatania.node[23].veinsmobility stopTime 103.19197267485
scalar RSUExampleCatania.node[23].veinsmobility minSpeed 0.0033911495793226
scalar RSUExampleCatania.node[23].veinsmobility maxSpeed 15.992792252661
scalar RSUExampleCatania.node[23].veinsmobility totalDistance 884.24288911104
scalar RSUExampleCatania.node[23].veinsmobility totalCO2Emission 242.00183969511
scalar RSUExampleCatania.node[25].appl generatedWSMs 1
scalar RSUExampleCatania.node[25].appl receivedWSMs 47
scalar RSUExampleCatania.node[25].appl generatedBSMs 70
scalar RSUExampleCatania.node[25].appl receivedBSMs 2218
scalar RSUExampleCatania.node[25].appl generatedWSAs 0
scalar RSUExampleCatania.node[25].appl receivedWSAs 0
scalar RSUExampleCatania.node[25].nic.phy80211p busyTime 0.0041248021528215
scalar RSUExampleCatania.node[25].nic.mac1609_4 ReceivedUnicastPackets 0
scalar RSUExampleCatania.node[25].nic.mac1609_4 ReceivedBroadcasts 2265
scalar RSUExampleCatania.node[25].nic.mac1609_4 SentPackets 71
scalar RSUExampleCatania.node[25].nic.mac1609_4 SentAcknowledgements 0
scalar RSUExampleCatania.node[25].nic.mac1609_4 SNIRLostPackets 450
scalar RSUExampleCatania.node[25].nic.mac1609_4 RXTXLostPackets 0
scalar RSUExampleCatania.node[25].nic.mac1609_4 TotalLostPackets 450
scalar RSUExampleCatania.node[25].nic.mac1609_4 DroppedPacketsInMac 0
scalar RSUExampleCatania.node[25].nic.mac1609_4 TooLittleTime 0
scalar RSUExampleCatania.node[25].nic.mac1609_4 TimesIntoBackoff 71
scalar RSUExampleCatania.node[25].nic.mac1609_4 SlotsBackoff 103
scalar RSUExampleCatania.node[25].nic.mac1609_4 NumInternalContention 0
scalar RSUExampleCatania.node[25].nic.mac1609_4 totalBusyTime 0.294719
scalar RSUExampleCatania.node[25].veinsmobility startTime 33
scalar RSUExampleCatania.node[25].veinsmobility totalTime 70
scalar RSUExampleCatania.node[25].veinsmobility stopTime 103.19197267485
scalar RSUExampleCatania.node[25].veinsmobility minSpeed 0.50923519183698
scalar RSUExampleCatania.node[25].veinsmobility maxSpeed 15.990829435666
scalar RSUExampleCatania.node[25].veinsmobility totalDistance 895.21703082986
scalar RSUExampleCatania.node[25].veinsmobility totalCO2Emission 232.62408189612
scalar RSUExampleCatania.node[27].appl generatedWSMs 1
scalar RSUExampleCatania.node[27].appl receivedWSMs 46
scalar RSUExampleCatania.node[27].appl generatedBSMs 68
scalar RSUExampleCatania.node[27].appl receivedBSMs 2189
scalar RSUExampleCatania.node[27].appl generatedWSAs 0
scalar RSUExampleCatania.node[27].appl receivedWSAs 0
scalar RSUExampleCatania.node[27].nic.phy80211p busyTime 0.0042431973830657
scalar RSUExampleCatania.node[27].nic.mac1609_4 ReceivedUnicastPackets 0
scalar RSUExampleCatania.node[27].nic.mac1609_4 ReceivedBroadcasts 2235
scalar RSUExampleCatania.node[27].nic.mac1609_4 SentPackets 69
scalar RSUExampleCatania.node[27].nic.mac1609_4 SentAcknowledgements 0
scalar RSUExampleCatania.node[27].nic.mac1609_4 SNIRLostPackets 482
scalar RSUExampleCatania.node[27].nic.mac1609_4 RXTXLostPackets 0
scalar RSUExampleCatania.node[27].nic.mac1609_4 TotalLostPackets 482
scalar RSUExampleCatania.node[27].nic.mac1609_4 DroppedPacketsInMac 0
scalar RSUExampleCatania.node[27].nic.mac1609_4 TooLittleTime 0
scalar RSUExampleCatania.node[27].nic.mac1609_4 TimesIntoBackoff 69
scalar RSUExampleCatania.node[27].nic.mac1609_4 SlotsBackoff 111
scalar RSUExampleCatania.node[27].nic.mac1609_4 NumInternalContention 0
scalar RSUExampleCatania.node[27].nic.mac1609_4 totalBusyTime 0.294229
scalar RSUExampleCatania.node[27].veinsmobility startTime 35
scalar RSUExampleCatania.node[27].veinsmobility totalTime 68
scalar RSUExampleCatania.node[27].veinsmobility stopTime 103.19197267485
scalar RSUExampleCatania.node[27].veinsmobility minSpeed 0.17785328576883
scalar RSUExampleCatania.node[27].veinsmobility maxSpeed 15.945662981085
scalar RSUExampleCatania.node[27].veinsmobility totalDistance 841.58572833794
scalar RSUExampleCatania.node[27].veinsmobility totalCO2Emission 219.20851203992
scalar RSUExampleCatania.node[29].appl generatedWSMs 1
scalar RSUExampleCatania.node[29].appl receivedWSMs 45
scalar RSUExampleCatania.node[29].appl generatedBSMs 66
scalar RSUExampleCatania.node[29].appl receivedBSMs 2113
scalar RSUExampleCatania.node[29].appl generatedWSAs 0
scalar RSUExampleCatania.node[29].appl receivedWSAs 0
scalar RSUExampleCatania.node[29].nic.phy80211p busyTime 0.0042677647045239
scalar RSUExampleCatania.node[29].nic.mac1609_4 ReceivedUnicastPackets 0
scalar RSUExampleCatania.node[29].nic.mac1609_4 ReceivedBroadcasts 2158
scalar RSUExampleCatania.node[29].nic.mac1609_4 SentPackets 67
scalar RSUExampleCatania.node[29].nic.mac1609_4 SentAcknowledgements 0
scalar RSUExampleCatania.node[29].nic.mac1609_4 SNIRLostPackets 452
scalar RSUExampleCatania.node[29].nic.mac1609_4 RXTXLostPackets 0
scalar RSUExampleCatania.node[29].nic.mac1609_4 TotalLostPackets 452
scalar RSUExampleCatania.node[29].nic.mac1609_4 DroppedPacketsInMac 0
scalar RSUExampleCatania.node[29].nic.mac1609_4 TooLittleTime 0
scalar RSUExampleCatania.node[29].nic.mac1609_4 TimesIntoBackoff 67
scalar RSUExampleCatania.node[29].nic.mac1609_4 SlotsBackoff 85
scalar RSUExampleCatania.node[29].nic.mac1609_4 NumInternalContention 0
scalar RSUExampleCatania.node[29].nic.mac1609_4 totalBusyTime 0.283099
scalar RSUExampleCatania.node[29].veinsmobility startTime 38
scalar RSUExampleCatania.node[29].veinsmobility totalTime 65
scalar RSUExampleCatania.node[29].veinsmobility stopTime 103.19197267485
scalar RSUExampleCatania.node[29].veinsmobility minSpeed 1.4175520612063
scalar RSUExampleCatania.node[29].veinsmobility maxSpeed 15.983077460597
scalar RSUExampleCatania.node[29].veinsmobility totalDistance 757.60366579273
scalar RSUExampleCatania.node[29].veinsmobility totalCO2Emission 180.53173687109
scalar RSUExampleCatania.node[32].appl generatedWSMs 1
scalar RSUExampleCatania.node[32].appl receivedWSMs 45
scalar RSUExampleCatania.node[32].appl generatedBSMs 62
scalar RSUExampleCatania.node[32].appl receivedBSMs 2017
scalar RSUExampleCatania.node[32].appl generatedWSAs 0
scalar RSUExampleCatania.node[32].appl receivedWSAs 0
scalar RSUExampleCatania.node[32].nic.phy80211p busyTime 0.0043177276495782
scalar RSUExampleCatania.node[32].nic.mac1609_4 ReceivedUnicastPackets 0
scalar RSUExampleCatania.node[32].nic.mac1609_4 ReceivedBroadcasts 2062
scalar RSUExampleCatania.node[32].nic.mac1609_4 SentPackets 63
scalar RSUExampleCatania.node[32].nic.mac1609_4 SentAcknowledgements 0
scalar RSUExampleCatania.node[32].nic.mac1609_4 SNIRLostPackets 456
scalar RSUExampleCatania.node[32].nic.mac1609_4 RXTXLostPackets 0
scalar RSUExampleCatania.node[32].nic.mac1609_4 TotalLostPackets 456
scalar RSUExampleCatania.node[32].nic.mac1609_4 DroppedPacketsInMac 0
scalar RSUExampleCatania.node[32].nic.mac1609_4 TooLittleTime 0
scalar RSUExampleCatania.node[32].nic.mac1609_4 TimesIntoBackoff 63
scalar RSUExampleCatania.node[32].nic.mac1609_4 SlotsBackoff 93
scalar RSUExampleCatania.node[32].nic.mac1609_4 NumInternalContention 0
scalar RSUExampleCatania.node[32].nic.mac1609_4 totalBusyTime 0.273191
scalar RSUExampleCatania.node[32].veinsmobility startTime 41
scalar RSUExampleCatania.node[32].veinsmobility totalTime 62
scalar RSUExampleCatania.node[32].veinsmobility stopTime 103.19197267485
scalar RSUExampleCatania.node[32].veinsmobility minSpeed 2.579432386905
scalar RSUExampleCatania.node[32].veinsmobility maxSpeed 15.944090751233
scalar RSUExampleCatania.node[32].veinsmobility totalDistance 740.72669856186
scalar RSUExampleCatania.node[32].veinsmobility totalCO2Emission 176.86747740257
scalar RSUExampleCatania.node[33].appl generatedWSMs 1
scalar RSUExampleCatania.node[33].appl receivedWSMs 45
scalar RSUExampleCatania.node[33].appl generatedBSMs 60
scalar RSUExampleCatania.node[33].appl receivedBSMs 1928
scalar RSUExampleCatania.node[33].appl generatedWSAs 0
scalar RSUExampleCatania.node[33].appl receivedWSAs 0
scalar RSUExampleCatania.node[33].nic.phy80211p busyTime 0.0042822985947379
scalar RSUExampleCatania.node[33].nic.mac1609_4 ReceivedUnicastPackets 0
scalar RSUExampleCatania.node[33].nic.mac1609_4 ReceivedBroadcasts 1973
scalar RSUExampleCatania.node[33].nic.mac1609_4 SentPackets 61
scalar RSUExampleCatania.node[33].nic.mac1609_4 SentAcknowledgements 0
scalar RSUExampleCatania.node[33].nic.mac1609_4 SNIRLostPackets 439
scalar RSUExampleCatania.node[33].nic.mac1609_4 RXTXLostPackets 0
scalar RSUExampleCatania.node[33].nic.mac1609_4 TotalLostPackets 439
scalar RSUExampleCatania.node[33].nic.mac1609_4 DroppedPacketsInMac 0
scalar RSUExampleCatania.node[33].nic.mac1609_4 TooLittleTime 0
scalar RSUExampleCatania.node[33].nic.mac1609_4 TimesIntoBackoff 61
scalar RSUExampleCatania.node[33].nic.mac1609_4 SlotsBackoff 79
scalar RSUExampleCatania.node[33].nic.mac1609_4 NumInternalContention 0
scalar RSUExampleCatania.node[33].nic.mac1609_4 totalBusyTime 0.263253
scalar RSUExampleCatania.node[33].veinsmobility startTime 43
scalar RSUExampleCatania.node[33].veinsmobility totalTime 60
scalar RSUExampleCatania.node[33].veinsmobility stopTime 103.19197267485
scalar RSUExampleCatania.node[33].veinsmobility minSpeed 1.2830979798965
scalar RSUExampleCatania.node[33].veinsmobility maxSpeed 15.950725306803
scalar RSUExampleCatania.node[33].veinsmobility totalDistance 728.65370818278
scalar RSUExampleCatania.node[33].veinsmobility totalCO2Emission 155.52068374611
scalar RSUExampleCatania.node[35].appl generatedWSMs 1
scalar RSUExampleCatania.node[35].appl receivedWSMs 47
scalar RSUExampleCatania.node[35].appl generatedBSMs 57
scalar RSUExampleCatania.node[35].appl receivedBSMs 1832
scalar RSUExampleCatania.node[35].appl generatedWSAs 0
scalar RSUExampleCatania.node[35].appl receivedWSAs 0
scalar RSUExampleCatania.node[35].nic.phy80211p busyTime 0.0043136123561008
scalar RSUExampleCatania.node[35].nic.mac1609_4 ReceivedUnicastPackets 0
scalar RSUExampleCatania.node[35].nic.mac1609_4 ReceivedBroadcasts 1879
scalar RSUExampleCatania.node[35].nic.mac1609_4 SentPackets 58
scalar RSUExampleCatania.node[35].nic.mac1609_4 SentAcknowledgements 0
scalar RSUExampleCatania.node[35].nic.mac1609_4 SNIRLostPackets 423
scalar RSUExampleCatania.node[35].nic.mac1609_4 RXTXLostPackets 0
scalar RSUExampleCatania.node[35].nic.mac1609_4 TotalLostPackets 423
scalar RSUExampleCatania.node[35].nic.mac1609_4 DroppedPacketsInMac 0
scalar RSUExampleCatania.node[35].nic.mac1609_4 TooLittleTime 0
scalar RSUExampleCatania.node[35].nic.mac1609_4 TimesIntoBackoff 90
scalar RSUExampleCatania.node[35].nic.mac1609_4 SlotsBackoff 143
scalar RSUExampleCatania.node[35].nic.mac1609_4 NumInternalContention 0
scalar RSUExampleCatania.node[35].nic.mac1609_4 totalBusyTime 0.252714
scalar RSUExampleCatania.node[35].veinsmobility startTime 46
scalar RSUExampleCatania.node[35].veinsmobility totalTime 57
scalar RSUExampleCatania.node[35].veinsmobility stopTime 103.19197267485
scalar RSUExampleCatania.node[35].veinsmobility minSpeed 2.5741558283335
scalar RSUExampleCatania.node[35].veinsmobility maxSpeed 15.947985394439
scalar RSUExampleCatania.node[35].veinsmobility totalDistance 718.52561107324
scalar RSUExampleCatania.node[35].veinsmobility totalCO2Emission 161.58550730827
scalar RSUExampleCatania.node[37].appl generatedWSMs 1
scalar RSUExampleCatania.node[37].appl receivedWSMs 47
scalar RSUExampleCatania.node[37].appl generatedBSMs 56
scalar RSUExampleCatania.node[37].appl receivedBSMs 1740
scalar RSUExampleCatania.node[37].appl generatedWSAs 0
scalar RSUExampleCatania.node[37].appl receivedWSAs 0
scalar RSUExampleCatania.node[37].nic.phy80211p busyTime 0.004314830372217
scalar RSUExampleCatania.node[37].nic.mac1609_4 ReceivedUnicastPackets 0
scalar RSUExampleCatania.node[37].nic.mac1609_4 ReceivedBroadcasts 1787
scalar RSUExampleCatania.node[37].nic.mac1609_4 SentPackets 57
scalar RSUExampleCatania.node[37].nic.mac1609_4 SentAcknowledgements 0
scalar RSUExampleCatania.node[37].nic.mac1609_4 SNIRLostPackets 429
scalar RSUExampleCatania.node[37].nic.mac1609_4 RXTXLostPackets 0
scalar RSUExampleCatania.node[37].nic.mac1609_4 TotalLostPackets 429
scalar RSUExampleCatania.node[37].nic.mac1609_4 DroppedPacketsInMac 0
scalar RSUExampleCatania.node[37].nic.mac1609_4 TooLittleTime 0
scalar RSUExampleCatania.node[37].nic.mac1609_4 TimesIntoBackoff 57
scalar RSUExampleCatania.node[37].nic.mac1609_4 SlotsBackoff 79
scalar RSUExampleCatania.node[37].nic.mac1609_4 NumInternalContention 0
scalar RSUExampleCatania.node[37].nic.mac1609_4 totalBusyTime 0.243945
scalar RSUExampleCatania.node[37].veinsmobility startTime 48
scalar RSUExampleCatania.node[37].veinsmobility totalTime 55
scalar RSUExampleCatania.node[37].veinsmobility stopTime 103.19197267485
scalar RSUExampleCatania.node[37].veinsmobility minSpeed 1.8530824389308
scalar RSUExampleCatania.node[37].veinsmobility maxSpeed 15.934976490191
scalar RSUExampleCatania.node[37].veinsmobility totalDistance 706.66886243676
scalar RSUExampleCatania.node[37].veinsmobility totalCO2Emission 151.37733976927
scalar RSUExampleCatania.node[39].appl generatedWSMs 1
scalar RSUExampleCatania.node[39].appl receivedWSMs 22
scalar RSUExampleCatania.node[39].appl generatedBSMs 53
scalar RSUExampleCatania.node[39].appl receivedBSMs 1654
scalar RSUExampleCatania.node[39].appl generatedWSAs 0
scalar RSUExampleCatania.node[39].appl receivedWSAs 0
scalar RSUExampleCatania.node[39].nic.phy80211p busyTime 0.0042400382737949
scalar RSUExampleCatania.node[39].nic.mac1609_4 ReceivedUnicastPackets 0
scalar RSUExampleCatania.node[39].nic.mac1609_4 ReceivedBroadcasts 1676
scalar RSUExampleCatania.node[39].nic.mac1609_4 SentPackets 54
scalar RSUExampleCatania.node[39].nic.mac1609_4 SentAcknowledgements 0
scalar RSUExampleCatania.node[39].nic.mac1609_4 SNIRLostPackets 436
scalar RSUExampleCatania.node[39].nic.mac1609_4 RXTXLostPackets 0
scalar RSUExampleCatania.node[39].nic.mac1609_4 TotalLostPackets 436
scalar RSUExampleCatania.node[39].nic.mac1609_4 DroppedPacketsInMac 0
scalar RSUExampleCatania.node[39].nic.mac1609_4 TooLittleTime 0
scalar RSUExampleCatania.node[39].nic.mac1609_4 TimesIntoBackoff 54
scalar RSUExampleCatania.node[39].nic.mac1609_4 SlotsBackoff 84
scalar RSUExampleCatania.node[39].nic.mac1609_4 NumInternalContention 0
scalar RSUExampleCatania.node[39].nic.mac1609_4 totalBusyTime 0.231022
scalar RSUExampleCatania.node[39].veinsmobility startTime 50
scalar RSUExampleCatania.node[39].veinsmobility totalTime 53
scalar RSUExampleCatania.node[39].veinsmobility stopTime 103.19197267485
scalar RSUExampleCatania.node[39].veinsmobility minSpeed 0.93344111137433
scalar RSUExampleCatania.node[39].veinsmobility maxSpeed 15.973201147374
scalar RSUExampleCatania.node[39].veinsmobility totalDistance 693.4767326816
scalar RSUExampleCatania.node[39].veinsmobility totalCO2Emission 149.85472584032
scalar RSUExampleCatania.node[5].appl generatedWSMs 1
scalar RSUExampleCatania.node[5].appl receivedWSMs 46
scalar RSUExampleCatania.node[5].appl generatedBSMs 97
scalar RSUExampleCatania.node[5].appl receivedBSMs 2649
scalar RSUExampleCatania.node[5].appl generatedWSAs 0
scalar RSUExampleCatania.node[5].appl receivedWSAs 0
scalar RSUExampleCatania.node[5].nic.phy80211p busyTime 0.0032856211393952
scalar RSUExampleCatania.node[5].nic.mac1609_4 ReceivedUnicastPackets 0
scalar RSUExampleCatania.node[5].nic.mac1609_4 ReceivedBroadcasts 2695
scalar RSUExampleCatania.node[5].nic.mac1609_4 SentPackets 98
scalar RSUExampleCatania.node[5].nic.mac1609_4 SentAcknowledgements 0
scalar RSUExampleCatania.node[5].nic.mac1609_4 SNIRLostPackets 314
scalar RSUExampleCatania.node[5].nic.mac1609_4 RXTXLostPackets 0
scalar RSUExampleCatania.node[5].nic.mac1609_4 TotalLostPackets 314
scalar RSUExampleCatania.node[5].nic.mac1609_4 DroppedPacketsInMac 0
scalar RSUExampleCatania.node[5].nic.mac1609_4 TooLittleTime 0
scalar RSUExampleCatania.node[5].nic.mac1609_4 TimesIntoBackoff 99
scalar RSUExampleCatania.node[5].nic.mac1609_4 SlotsBackoff 151
scalar RSUExampleCatania.node[5].nic.mac1609_4 NumInternalContention 0
scalar RSUExampleCatania.node[5].nic.mac1609_4 totalBusyTime 0.329754
scalar RSUExampleCatania.node[5].veinsmobility startTime 6
scalar RSUExampleCatania.node[5].veinsmobility totalTime 97
scalar RSUExampleCatania.node[5].veinsmobility stopTime 103.19197267485
scalar RSUExampleCatania.node[5].veinsmobility minSpeed 0
scalar RSUExampleCatania.node[5].veinsmobility maxSpeed 15.940338315489
scalar RSUExampleCatania.node[5].veinsmobility totalDistance 1132.2521384156
scalar RSUExampleCatania.node[5].veinsmobility totalCO2Emission 305.32432668183
scalar RSUExampleCatania.node[41].appl generatedWSMs 1
scalar RSUExampleCatania.node[41].appl receivedWSMs 27
scalar RSUExampleCatania.node[41].appl generatedBSMs 50
scalar RSUExampleCatania.node[41].appl receivedBSMs 1530
scalar RSUExampleCatania.node[41].appl generatedWSAs 0
scalar RSUExampleCatania.node[41].appl receivedWSAs 0
scalar RSUExampleCatania.node[41].nic.phy80211p busyTime 0.0041244842345825
scalar RSUExampleCatania.node[41].nic.mac1609_4 ReceivedUnicastPackets 0
scalar RSUExampleCatania.node[41].nic.mac1609_4 ReceivedBroadcasts 1557
scalar RSUExampleCatania.node[41].nic.mac1609_4 SentPackets 51
scalar RSUExampleCatania.node[41].nic.mac1609_4 SentAcknowledgements 0
scalar RSUExampleCatania.node[41].nic.mac1609_4 SNIRLostPackets 388
scalar RSUExampleCatania.node[41].nic.mac1609_4 RXTXLostPackets 0
scalar RSUExampleCatania.node[41].nic.mac1609_4 TotalLostPackets 388
scalar RSUExampleCatania.node[41].nic.mac1609_4 DroppedPacketsInMac 0
scalar RSUExampleCatania.node[41].nic.mac1609_4 TooLittleTime 0
scalar RSUExampleCatania.node[41].nic.mac1609_4 TimesIntoBackoff 51
scalar RSUExampleCatania.node[41].nic.mac1609_4 SlotsBackoff 86
scalar RSUExampleCatania.node[41].nic.mac1609_4 NumInternalContention 0
scalar RSUExampleCatania.node[41].nic.mac1609_4 totalBusyTime 0.212083
scalar RSUExampleCatania.node[41].veinsmobility startTime 53
scalar RSUExampleCatania.node[41].veinsmobility totalTime 50
scalar RSUExampleCatania.node[41].veinsmobility stopTime 103.19197267485
scalar RSUExampleCatania.node[41].veinsmobility minSpeed 1.408667164878
scalar RSUExampleCatania.node[41].veinsmobility maxSpeed 15.976248953235
scalar RSUExampleCatania.node[41].veinsmobility totalDistance 679.49853283011
scalar RSUExampleCatania.node[41].veinsmobility totalCO2Emission 144.1331940334
scalar RSUExampleCatania.node[43].appl generatedWSMs 1
scalar RSUExampleCatania.node[43].appl receivedWSMs 27
scalar RSUExampleCatania.node[43].appl generatedBSMs 48
scalar RSUExampleCatania.node[43].appl receivedBSMs 1389
scalar RSUExampleCatania.node[43].appl generatedWSAs 0
scalar RSUExampleCatania.node[43].appl receivedWSAs 0
scalar RSUExampleCatania.node[43].nic.phy80211p busyTime 0.004055604992796
scalar RSUExampleCatania.node[43].nic.mac1609_4 ReceivedUnicastPackets 0
scalar RSUExampleCatania.node[43].nic.mac1609_4 ReceivedBroadcasts 1416
scalar RSUExampleCatania.node[43].nic.mac1609_4 SentPackets 49
scalar RSUExampleCatania.node[43].nic.mac1609_4 SentAcknowledgements 0
scalar RSUExampleCatania.node[43].nic.mac1609_4 SNIRLostPackets 380
scalar RSUExampleCatania.node[43].nic.mac1609_4 RXTXLostPackets 0
scalar RSUExampleCatania.node[43].nic.mac1609_4 TotalLostPackets 380
scalar RSUExampleCatania.node[43].nic.mac1609_4 DroppedPacketsInMac 0
scalar RSUExampleCatania.node[43].nic.mac1609_4 TooLittleTime 0
scalar RSUExampleCatania.node[43].nic.mac1609_4 TimesIntoBackoff 49
scalar RSUExampleCatania.node[43].nic.mac1609_4 SlotsBackoff 87
scalar RSUExampleCatania.node[43].nic.mac1609_4 NumInternalContention 0
scalar RSUExampleCatania.node[43].nic.mac1609_4 totalBusyTime 0.196145
scalar RSUExampleCatania.node[43].veinsmobility startTime 56
scalar RSUExampleCatania.node[43].veinsmobility totalTime 47
scalar RSUExampleCatania.node[43].veinsmobility stopTime 103.19197267485
scalar RSUExampleCatania.node[43].veinsmobility minSpeed 1.3796747926855
scalar RSUExampleCatania.node[43].veinsmobility maxSpeed 15.993708337704
scalar RSUExampleCatania.node[43].veinsmobility totalDistance 658.7275613398
scalar RSUExampleCatania.node[43].veinsmobility totalCO2Emission 144.07906713307
scalar RSUExampleCatania.node[45].appl generatedWSMs 1
scalar RSUExampleCatania.node[45].appl receivedWSMs 29
scalar RSUExampleCatania.node[45].appl generatedBSMs 45
scalar RSUExampleCatania.node[45].appl receivedBSMs 1278
scalar RSUExampleCatania.node[45].appl generatedWSAs 0
scalar RSUExampleCatania.node[45].appl receivedWSAs 0
scalar RSUExampleCatania.node[45].nic.phy80211p busyTime 0.0039366283317617
scalar RSUExampleCatania.node[45].nic.mac1609_4 ReceivedUnicastPackets 0
scalar RSUExampleCatania.node[45].nic.mac1609_4 ReceivedBroadcasts 1307
scalar RSUExampleCatania.node[45].nic.mac1609_4 SentPackets 46
scalar RSUExampleCatania.node[45].nic.mac1609_4 SentAcknowledgements 0
scalar RSUExampleCatania.node[45].nic.mac1609_4 SNIRLostPackets 363
scalar RSUExampleCatania.node[45].nic.mac1609_4 RXTXLostPackets 0
scalar RSUExampleCatania.node[45].nic.mac1609_4 TotalLostPackets 363
scalar RSUExampleCatania.node[45].nic.mac1609_4 DroppedPacketsInMac 0
scalar RSUExampleCatania.node[45].nic.mac1609_4 TooLittleTime 0
scalar RSUExampleCatania.node[45].nic.mac1609_4 TimesIntoBackoff 46
scalar RSUExampleCatania.node[45].nic.mac1609_4 SlotsBackoff 68
scalar RSUExampleCatania.node[45].nic.mac1609_4 NumInternalContention 0
scalar RSUExampleCatania.node[45].nic.mac1609_4 totalBusyTime 0.182446
scalar RSUExampleCatania.node[45].veinsmobility startTime 58
scalar RSUExampleCatania.node[45].veinsmobility totalTime 45
scalar RSUExampleCatania.node[45].veinsmobility stopTime 103.19197267485
scalar RSUExampleCatania.node[45].veinsmobility minSpeed 0.042898369734448
scalar RSUExampleCatania.node[45].veinsmobility maxSpeed 15.999839340569
scalar RSUExampleCatania.node[45].veinsmobility totalDistance 628.53250867535
scalar RSUExampleCatania.node[45].veinsmobility totalCO2Emission 134.33728197042
scalar RSUExampleCatania.node[47].appl generatedWSMs 1
scalar RSUExampleCatania.node[47].appl receivedWSMs 32
scalar RSUExampleCatania.node[47].appl generatedBSMs 42
scalar RSUExampleCatania.node[47].appl receivedBSMs 1123
scalar RSUExampleCatania.node[47].appl generatedWSAs 0
scalar RSUExampleCatania.node[47].appl receivedWSAs 0
scalar RSUExampleCatania.node[47].nic.phy80211p busyTime 0.0038784628834755
scalar RSUExampleCatania.node[47].nic.mac1609_4 ReceivedUnicastPackets 0
scalar RSUExampleCatania.node[47].nic.mac1609_4 ReceivedBroadcasts 1155
scalar RSUExampleCatania.node[47].nic.mac1609_4 SentPackets 43
scalar RSUExampleCatania.node[47].nic.mac1609_4 SentAcknowledgements 0
scalar RSUExampleCatania.node[47].nic.mac1609_4 SNIRLostPackets 368
scalar RSUExampleCatania.node[47].nic.mac1609_4 RXTXLostPackets 0
scalar RSUExampleCatania.node[47].nic.mac1609_4 TotalLostPackets 368
scalar RSUExampleCatania.node[47].nic.mac1609_4 DroppedPacketsInMac 0
scalar RSUExampleCatania.node[47].nic.mac1609_4 TooLittleTime 0
scalar RSUExampleCatania.node[47].nic.mac1609_4 TimesIntoBackoff 43
scalar RSUExampleCatania.node[47].nic.mac1609_4 SlotsBackoff 79
scalar RSUExampleCatania.node[47].nic.mac1609_4 NumInternalContention 0
scalar RSUExampleCatania.node[47].nic.mac1609_4 totalBusyTime 0.168179
scalar RSUExampleCatania.node[47].veinsmobility startTime 61
scalar RSUExampleCatania.node[47].veinsmobility totalTime 42
scalar RSUExampleCatania.node[47].veinsmobility stopTime 103.19197267485
scalar RSUExampleCatania.node[47].veinsmobility minSpeed 0.65506484353763
scalar RSUExampleCatania.node[47].veinsmobility maxSpeed 15.985958800418
scalar RSUExampleCatania.node[47].veinsmobility totalDistance 583.44419224032
scalar RSUExampleCatania.node[47].veinsmobility totalCO2Emission 128.6237387233
scalar RSUExampleCatania.node[6].appl generatedWSMs 1
scalar RSUExampleCatania.node[6].appl receivedWSMs 45
scalar RSUExampleCatania.node[6].appl generatedBSMs 96
scalar RSUExampleCatania.node[6].appl receivedBSMs 2665
scalar RSUExampleCatania.node[6].appl generatedWSAs 0
scalar RSUExampleCatania.node[6].appl receivedWSAs 0
scalar RSUExampleCatania.node[6].nic.phy80211p busyTime 0.0034084386622416
scalar RSUExampleCatania.node[6].nic.mac1609_4 ReceivedUnicastPackets 0
scalar RSUExampleCatania.node[6].nic.mac1609_4 ReceivedBroadcasts 2710
scalar RSUExampleCatania.node[6].nic.mac1609_4 SentPackets 97
scalar RSUExampleCatania.node[6].nic.mac1609_4 SentAcknowledgements 0
scalar RSUExampleCatania.node[6].nic.mac1609_4 SNIRLostPackets 347
scalar RSUExampleCatania.node[6].nic.mac1609_4 RXTXLostPackets 0
scalar RSUExampleCatania.node[6].nic.mac1609_4 TotalLostPackets 347
scalar RSUExampleCatania.node[6].nic.mac1609_4 DroppedPacketsInMac 0
scalar RSUExampleCatania.node[6].nic.mac1609_4 TooLittleTime 0
scalar RSUExampleCatania.node[6].nic.mac1609_4 TimesIntoBackoff 97
scalar RSUExampleCatania.node[6].nic.mac1609_4 SlotsBackoff 141
scalar RSUExampleCatania.node[6].nic.mac1609_4 NumInternalContention 0
scalar RSUExampleCatania.node[6].nic.mac1609_4 totalBusyTime 0.334769
scalar RSUExampleCatania.node[6].veinsmobility startTime 8
scalar RSUExampleCatania.node[6].veinsmobility totalTime 95
scalar RSUExampleCatania.node[6].veinsmobility stopTime 103.19197267485
scalar RSUExampleCatania.node[6].veinsmobility minSpeed 0
scalar RSUExampleCatania.node[6].veinsmobility maxSpeed 15.976225235849
scalar RSUExampleCatania.node[6].veinsmobility totalDistance 1095.0703382432
scalar RSUExampleCatania.node[6].veinsmobility totalCO2Emission 297.27057753433
scalar RSUExampleCatania.node[9].appl generatedWSMs 1
scalar RSUExampleCatania.node[9].appl receivedWSMs 46
scalar RSUExampleCatania.node[9].appl generatedBSMs 92
scalar RSUExampleCatania.node[9].appl receivedBSMs 2692
scalar RSUExampleCatania.node[9].appl generatedWSAs 0
scalar RSUExampleCatania.node[9].appl receivedWSAs 0
scalar RSUExampleCatania.node[9].nic.phy80211p busyTime 0.0036022225185621
scalar RSUExampleCatania.node[9].nic.mac1609_4 ReceivedUnicastPackets 0
scalar RSUExampleCatania.node[9].nic.mac1609_4 ReceivedBroadcasts 2738
scalar RSUExampleCatania.node[9].nic.mac1609_4 SentPackets 93
scalar RSUExampleCatania.node[9].nic.mac1609_4 SentAcknowledgements 0
scalar RSUExampleCatania.node[9].nic.mac1609_4 SNIRLostPackets 390
scalar RSUExampleCatania.node[9].nic.mac1609_4 RXTXLostPackets 0
scalar RSUExampleCatania.node[9].nic.mac1609_4 TotalLostPackets 390
scalar RSUExampleCatania.node[9].nic.mac1609_4 DroppedPacketsInMac 0
scalar RSUExampleCatania.node[9].nic.mac1609_4 TooLittleTime 0
scalar RSUExampleCatania.node[9].nic.mac1609_4 TimesIntoBackoff 93
scalar RSUExampleCatania.node[9].nic.mac1609_4 SlotsBackoff 143
scalar RSUExampleCatania.node[9].nic.mac1609_4 NumInternalContention 0
scalar RSUExampleCatania.node[9].nic.mac1609_4 totalBusyTime 0.341989
scalar RSUExampleCatania.node[9].veinsmobility startTime 11
scalar RSUExampleCatania.node[9].veinsmobility totalTime 92
scalar RSUExampleCatania.node[9].veinsmobility stopTime 103.19197267485
scalar RSUExampleCatania.node[9].veinsmobility minSpeed 0.00054940736082434
scalar RSUExampleCatania.node[9].veinsmobility maxSpeed 15.99033873626
scalar RSUExampleCatania.node[9].veinsmobility totalDistance 1053.3807649955
scalar RSUExampleCatania.node[9].veinsmobility totalCO2Emission 275.55433391657
scalar RSUExampleCatania.node[10].appl generatedWSMs 1
scalar RSUExampleCatania.node[10].appl receivedWSMs 46
scalar RSUExampleCatania.node[10].appl generatedBSMs 90
scalar RSUExampleCatania.node[10].appl receivedBSMs 2697
scalar RSUExampleCatania.node[10].appl generatedWSAs 0
scalar RSUExampleCatania.node[10].appl receivedWSAs 0
scalar RSUExampleCatania.node[10].nic.phy80211p busyTime 0.0036386386755627
scalar RSUExampleCatania.node[10].nic.mac1609_4 ReceivedUnicastPackets 0
scalar RSUExampleCatania.node[10].nic.mac1609_4 ReceivedBroadcasts 2743
scalar RSUExampleCatania.node[10].nic.mac1609_4 SentPackets 91
scalar RSUExampleCatania.node[10].nic.mac1609_4 SentAcknowledgements 0
scalar RSUExampleCatania.node[10].nic.mac1609_4 SNIRLostPackets 351
scalar RSUExampleCatania.node[10].nic.mac1609_4 RXTXLostPackets 0
scalar RSUExampleCatania.node[10].nic.mac1609_4 TotalLostPackets 351
scalar RSUExampleCatania.node[10].nic.mac1609_4 DroppedPacketsInMac 0
scalar RSUExampleCatania.node[10].nic.mac1609_4 TooLittleTime 0
scalar RSUExampleCatania.node[10].nic.mac1609_4 TimesIntoBackoff 91
scalar RSUExampleCatania.node[10].nic.mac1609_4 SlotsBackoff 135
scalar RSUExampleCatania.node[10].nic.mac1609_4 NumInternalContention 0
scalar RSUExampleCatania.node[10].nic.mac1609_4 totalBusyTime 0.337859
scalar RSUExampleCatania.node[10].veinsmobility startTime 13
scalar RSUExampleCatania.node[10].veinsmobility totalTime 90
scalar RSUExampleCatania.node[10].veinsmobility stopTime 103.19197267485
scalar RSUExampleCatania.node[10].veinsmobility minSpeed 0
scalar RSUExampleCatania.node[10].veinsmobility maxSpeed 15.967367858277
scalar RSUExampleCatania.node[10].veinsmobility totalDistance 986.36698897901
scalar RSUExampleCatania.node[10].veinsmobility totalCO2Emission 240.94970591762
scalar RSUExampleCatania.node[13].appl generatedWSMs 1
scalar RSUExampleCatania.node[13].appl receivedWSMs 45
scalar RSUExampleCatania.node[13].appl generatedBSMs 87
scalar RSUExampleCatania.node[13].appl receivedBSMs 2699
scalar RSUExampleCatania.node[13].appl generatedWSAs 0
scalar RSUExampleCatania.node[13].appl receivedWSAs 0
scalar RSUExampleCatania.node[13].nic.phy80211p busyTime 0.0038037446547608
scalar RSUExampleCatania.node[13].nic.mac1609_4 ReceivedUnicastPackets 0
scalar RSUExampleCatania.node[13].nic.mac1609_4 ReceivedBroadcasts 2744
scalar RSUExampleCatania.node[13].nic.mac1609_4 SentPackets 88
scalar RSUExampleCatania.node[13].nic.mac1609_4 SentAcknowledgements 0
scalar RSUExampleCatania.node[13].nic.mac1609_4 SNIRLostPackets 381
scalar RSUExampleCatania.node[13].nic.mac1609_4 RXTXLostPackets 0
scalar RSUExampleCatania.node[13].nic.mac1609_4 TotalLostPackets 381
scalar RSUExampleCatania.node[13].nic.mac1609_4 DroppedPacketsInMac 0
scalar RSUExampleCatania.node[13].nic.mac1609_4 TooLittleTime 0
scalar RSUExampleCatania.node[13].nic.mac1609_4 TimesIntoBackoff 88
scalar RSUExampleCatania.node[13].nic.mac1609_4 SlotsBackoff 134
scalar RSUExampleCatania.node[13].nic.mac1609_4 NumInternalContention 0
scalar RSUExampleCatania.node[13].nic.mac1609_4 totalBusyTime 0.340192
scalar RSUExampleCatania.node[13].veinsmobility startTime 16
scalar RSUExampleCatania.node[13].veinsmobility totalTime 87
scalar RSUExampleCatania.node[13].veinsmobility stopTime 103.19197267485
scalar RSUExampleCatania.node[13].veinsmobility minSpeed 0.0042280003628275
scalar RSUExampleCatania.node[13].veinsmobility maxSpeed 15.99991745376
scalar RSUExampleCatania.node[13].veinsmobility totalDistance 1014.6348569989
scalar RSUExampleCatania.node[13].veinsmobility totalCO2Emission 251.90887125904
scalar RSUExampleCatania.node[15].appl generatedWSMs 1
scalar RSUExampleCatania.node[15].appl receivedWSMs 45
scalar RSUExampleCatania.node[15].appl generatedBSMs 84
scalar RSUExampleCatania.node[15].appl receivedBSMs 2695
scalar RSUExampleCatania.node[15].appl generatedWSAs 0
scalar RSUExampleCatania.node[15].appl receivedWSAs 0
scalar RSUExampleCatania.node[15].nic.phy80211p busyTime 0.0038957633320544
scalar RSUExampleCatania.node[15].nic.mac1609_4 ReceivedUnicastPackets 0
scalar RSUExampleCatania.node[15].nic.mac1609_4 ReceivedBroadcasts 2740
scalar RSUExampleCatania.node[15].nic.mac1609_4 SentPackets 85
scalar RSUExampleCatania.node[15].nic.mac1609_4 SentAcknowledgements 0
scalar RSUExampleCatania.node[15].nic.mac1609_4 SNIRLostPackets 351
scalar RSUExampleCatania.node[15].nic.mac1609_4 RXTXLostPackets 0
scalar RSUExampleCatania.node[15].nic.mac1609_4 TotalLostPackets 351
scalar RSUExampleCatania.node[15].nic.mac1609_4 DroppedPacketsInMac 0
scalar RSUExampleCatania.node[15].nic.mac1609_4 TooLittleTime 0
scalar RSUExampleCatania.node[15].nic.mac1609_4 TimesIntoBackoff 85
scalar RSUExampleCatania.node[15].nic.mac1609_4 SlotsBackoff 117
scalar RSUExampleCatania.node[15].nic.mac1609_4 NumInternalContention 0
scalar RSUExampleCatania.node[15].nic.mac1609_4 totalBusyTime 0.335589
scalar RSUExampleCatania.node[15].veinsmobility startTime 19
scalar RSUExampleCatania.node[15].veinsmobility totalTime 84
scalar RSUExampleCatania.node[15].veinsmobility stopTime 103.19197267485
scalar RSUExampleCatania.node[15].veinsmobility minSpeed 0.89561561029176
scalar RSUExampleCatania.node[15].veinsmobility maxSpeed 15.953541449388
scalar RSUExampleCatania.node[15].veinsmobility totalDistance 999.02095318555
scalar RSUExampleCatania.node[15].veinsmobility totalCO2Emission 257.08967844116
scalar RSUExampleCatania.node[17].appl generatedWSMs 1
scalar RSUExampleCatania.node[17].appl receivedWSMs 44
scalar RSUExampleCatania.node[17].appl generatedBSMs 81
scalar RSUExampleCatania.node[17].appl receivedBSMs 2645
scalar RSUExampleCatania.node[17].appl generatedWSAs 0
scalar RSUExampleCatania.node[17].appl receivedWSAs 0
scalar RSUExampleCatania.node[17].nic.phy80211p busyTime 0.0040092633455726
scalar RSUExampleCatania.node[17].nic.mac1609_4 ReceivedUnicastPackets 0
scalar RSUExampleCatania.node[17].nic.mac1609_4 ReceivedBroadcasts 2689
scalar RSUExampleCatania.node[17].nic.mac1609_4 SentPackets 82
scalar RSUExampleCatania.node[17].nic.mac1609_4 SentAcknowledgements 0
scalar RSUExampleCatania.node[17].nic.mac1609_4 SNIRLostPackets 377
scalar RSUExampleCatania.node[17].nic.mac1609_4 RXTXLostPackets 0
scalar RSUExampleCatania.node[17].nic.mac1609_4 TotalLostPackets 377
scalar RSUExampleCatania.node[17].nic.mac1609_4 DroppedPacketsInMac 0
scalar RSUExampleCatania.node[17].nic.mac1609_4 TooLittleTime 0
scalar RSUExampleCatania.node[17].nic.mac1609_4 TimesIntoBackoff 82
scalar RSUExampleCatania.node[17].nic.mac1609_4 SlotsBackoff 121
scalar RSUExampleCatania.node[17].nic.mac1609_4 NumInternalContention 0
scalar RSUExampleCatania.node[17].nic.mac1609_4 totalBusyTime 0.33197
scalar RSUExampleCatania.node[17].veinsmobility startTime 22
scalar RSUExampleCatania.node[17].veinsmobility totalTime 81
scalar RSUExampleCatania.node[17].veinsmobility stopTime 103.19197267485
scalar RSUExampleCatania.node[17].veinsmobility minSpeed 1.5157137412753
scalar RSUExampleCatania.node[17].veinsmobility maxSpeed 15.964636924001
scalar RSUExampleCatania.node[17].veinsmobility totalDistance 991.7183257742
scalar RSUExampleCatania.node[17].veinsmobility totalCO2Emission 231.82187218124
scalar RSUExampleCatania.node[19].appl generatedWSMs 1
scalar RSUExampleCatania.node[19].appl receivedWSMs 46
scalar RSUExampleCatania.node[19].appl generatedBSMs 79
scalar RSUExampleCatania.node[19].appl receivedBSMs 2568
scalar RSUExampleCatania.node[19].appl generatedWSAs 0
scalar RSUExampleCatania.node[19].appl receivedWSAs 0
scalar RSUExampleCatania.node[19].nic.phy80211p busyTime 0.0040593003197419
scalar RSUExampleCatania.node[19].nic.mac1609_4 ReceivedUnicastPackets 0
scalar RSUExampleCatania.node[19].nic.mac1609_4 ReceivedBroadcasts 2614
scalar RSUExampleCatania.node[19].nic.mac1609_4 SentPackets 80
scalar RSUExampleCatania.node[19].nic.mac1609_4 SentAcknowledgements 0
scalar RSUExampleCatania.node[19].nic.mac1609_4 SNIRLostPackets 413
scalar RSUExampleCatania.node[19].nic.mac1609_4 RXTXLostPackets 0
scalar RSUExampleCatania.node[19].nic.mac1609_4 TotalLostPackets 413
scalar RSUExampleCatania.node[19].nic.mac1609_4 DroppedPacketsInMac 0
scalar RSUExampleCatania.node[19].nic.mac1609_4 TooLittleTime 0
scalar RSUExampleCatania.node[19].nic.mac1609_4 TimesIntoBackoff 80
scalar RSUExampleCatania.node[19].nic.mac1609_4 SlotsBackoff 128
scalar RSUExampleCatania.node[19].nic.mac1609_4 NumInternalContention 0
scalar RSUExampleCatania.node[19].nic.mac1609_4 totalBusyTime 0.327704
scalar RSUExampleCatania.node[19].veinsmobility startTime 24
scalar RSUExampleCatania.node[19].veinsmobility totalTime 79
scalar RSUExampleCatania.node[19].veinsmobility stopTime 103.19197267485
scalar RSUExampleCatania.node[19].veinsmobility minSpeed 0.031038855468425
scalar RSUExampleCatania.node[19].veinsmobility maxSpeed 15.996268577804
scalar RSUExampleCatania.node[19].veinsmobility totalDistance 977.65157169076
scalar RSUExampleCatania.node[19].veinsmobility totalCO2Emission 223.95352797394
scalar RSUExampleCatania.node[1].appl generatedWSMs 1
scalar RSUExampleCatania.node[1].appl receivedWSMs 22
scalar RSUExampleCatania.node[1].appl generatedBSMs 102
scalar RSUExampleCatania.node[1].appl receivedBSMs 1594
scalar RSUExampleCatania.node[1].appl generatedWSAs 0
scalar RSUExampleCatania.node[1].appl receivedWSAs 0
scalar RSUExampleCatania.node[1].nic.phy80211p busyTime 0.0023364653186577
scalar RSUExampleCatania.node[1].nic.mac1609_4 ReceivedUnicastPackets 0
scalar RSUExampleCatania.node[1].nic.mac1609_4 ReceivedBroadcasts 1616
scalar RSUExampleCatania.node[1].nic.mac1609_4 SentPackets 103
scalar RSUExampleCatania.node[1].nic.mac1609_4 SentAcknowledgements 0
scalar RSUExampleCatania.node[1].nic.mac1609_4 SNIRLostPackets 622
scalar RSUExampleCatania.node[1].nic.mac1609_4 RXTXLostPackets 0
scalar RSUExampleCatania.node[1].nic.mac1609_4 TotalLostPackets 622
scalar RSUExampleCatania.node[1].nic.mac1609_4 DroppedPacketsInMac 0
scalar RSUExampleCatania.node[1].nic.mac1609_4 TooLittleTime 0
scalar RSUExampleCatania.node[1].nic.mac1609_4 TimesIntoBackoff 104
scalar RSUExampleCatania.node[1].nic.mac1609_4 SlotsBackoff 168
scalar RSUExampleCatania.node[1].nic.mac1609_4 NumInternalContention 0
scalar RSUExampleCatania.node[1].nic.mac1609_4 totalBusyTime 0.249607
scalar RSUExampleCatania.node[1].veinsmobility startTime 1
scalar RSUExampleCatania.node[1].veinsmobility totalTime 102
scalar RSUExampleCatania.node[1].veinsmobility stopTime 103.19197267485
scalar RSUExampleCatania.node[1].veinsmobility minSpeed 2.5772626519203
scalar RSUExampleCatania.node[1].veinsmobility maxSpeed 15.986513594398
scalar RSUExampleCatania.node[1].veinsmobility totalDistance 1384.3367273792
scalar RSUExampleCatania.node[1].veinsmobility totalCO2Emission 336.42248202629
scalar RSUExampleCatania.node[3].appl generatedWSMs 1
scalar RSUExampleCatania.node[3].appl receivedWSMs 26
scalar RSUExampleCatania.node[3].appl generatedBSMs 100
scalar RSUExampleCatania.node[3].appl receivedBSMs 1693
scalar RSUExampleCatania.node[3].appl generatedWSAs 0
scalar RSUExampleCatania.node[3].appl receivedWSAs 0
scalar RSUExampleCatania.node[3].nic.phy80211p busyTime 0.0024560849879521
scalar RSUExampleCatania.node[3].nic.mac1609_4 ReceivedUnicastPackets 0
scalar RSUExampleCatania.node[3].nic.mac1609_4 ReceivedBroadcasts 1719
scalar RSUExampleCatania.node[3].nic.mac1609_4 SentPackets 101
scalar RSUExampleCatania.node[3].nic.mac1609_4 SentAcknowledgements 0
scalar RSUExampleCatania.node[3].nic.mac1609_4 SNIRLostPackets 593
scalar RSUExampleCatania.node[3].nic.mac1609_4 RXTXLostPackets 0
scalar RSUExampleCatania.node[3].nic.mac1609_4 TotalLostPackets 593
scalar RSUExampleCatania.node[3].nic.mac1609_4 DroppedPacketsInMac 0
scalar RSUExampleCatania.node[3].nic.mac1609_4 TooLittleTime 0
scalar RSUExampleCatania.node[3].nic.mac1609_4 TimesIntoBackoff 101
scalar RSUExampleCatania.node[3].nic.mac1609_4 SlotsBackoff 143
scalar RSUExampleCatania.node[3].nic.mac1609_4 NumInternalContention 0
scalar RSUExampleCatania.node[3].nic.mac1609_4 totalBusyTime 0.256813
scalar RSUExampleCatania.node[3].veinsmobility startTime 3
scalar RSUExampleCatania.node[3].veinsmobility totalTime 100
scalar RSUExampleCatania.node[3].veinsmobility stopTime 103.19197267485
scalar RSUExampleCatania.node[3].veinsmobility minSpeed 2.0125663528328
scalar RSUExampleCatania.node[3].veinsmobility maxSpeed 15.991900665918
scalar RSUExampleCatania.node[3].veinsmobility totalDistance 1365.6483749871
scalar RSUExampleCatania.node[3].veinsmobility totalCO2Emission 339.49852993557
scalar RSUExampleCatania.node[20].appl generatedWSMs 1
scalar RSUExampleCatania.node[20].appl receivedWSMs 45
scalar RSUExampleCatania.node[20].appl generatedBSMs 79
scalar RSUExampleCatania.node[20].appl receivedBSMs 2297
scalar RSUExampleCatania.node[20].appl generatedWSAs 0
scalar RSUExampleCatania.node[20].appl receivedWSAs 0
scalar RSUExampleCatania.node[20].nic.phy80211p busyTime 0.0036378158814696
scalar RSUExampleCatania.node[20].nic.mac1609_4 ReceivedUnicastPackets 0
scalar RSUExampleCatania.node[20].nic.mac1609_4 ReceivedBroadcasts 2343
scalar RSUExampleCatania.node[20].nic.mac1609_4 SentPackets 80
scalar RSUExampleCatania.node[20].nic.mac1609_4 SentAcknowledgements 0
scalar RSUExampleCatania.node[20].nic.mac1609_4 SNIRLostPackets 333
scalar RSUExampleCatania.node[20].nic.mac1609_4 RXTXLostPackets 0
scalar RSUExampleCatania.node[20].nic.mac1609_4 TotalLostPackets 333
scalar RSUExampleCatania.node[20].nic.mac1609_4 DroppedPacketsInMac 0
scalar RSUExampleCatania.node[20].nic.mac1609_4 TooLittleTime 0
scalar RSUExampleCatania.node[20].nic.mac1609_4 TimesIntoBackoff 80
scalar RSUExampleCatania.node[20].nic.mac1609_4 SlotsBackoff 107
scalar RSUExampleCatania.node[20].nic.mac1609_4 NumInternalContention 0
scalar RSUExampleCatania.node[20].nic.mac1609_4 totalBusyTime 0.292768
scalar RSUExampleCatania.node[20].veinsmobility startTime 25
scalar RSUExampleCatania.node[20].veinsmobility totalTime 78
scalar RSUExampleCatania.node[20].veinsmobility stopTime 103.19197267485
scalar RSUExampleCatania.node[20].veinsmobility minSpeed 0
scalar RSUExampleCatania.node[20].veinsmobility maxSpeed 15.964204909373
scalar RSUExampleCatania.node[20].veinsmobility totalDistance 942.83601657935
scalar RSUExampleCatania.node[20].veinsmobility totalCO2Emission 255.27068415784
scalar RSUExampleCatania.node[22].appl generatedWSMs 1
scalar RSUExampleCatania.node[22].appl receivedWSMs 45
scalar RSUExampleCatania.node[22].appl generatedBSMs 75
scalar RSUExampleCatania.node[22].appl receivedBSMs 2305
scalar RSUExampleCatania.node[22].appl generatedWSAs 0
scalar RSUExampleCatania.node[22].appl receivedWSAs 0
scalar RSUExampleCatania.node[22].nic.phy80211p busyTime 0.0037708280540277
scalar RSUExampleCatania.node[22].nic.mac1609_4 ReceivedUnicastPackets 0
scalar RSUExampleCatania.node[22].nic.mac1609_4 ReceivedBroadcasts 2350
scalar RSUExampleCatania.node[22].nic.mac1609_4 SentPackets 76
scalar RSUExampleCatania.node[22].nic.mac1609_4 SentAcknowledgements 0
scalar RSUExampleCatania.node[22].nic.mac1609_4 SNIRLostPackets 316
scalar RSUExampleCatania.node[22].nic.mac1609_4 RXTXLostPackets 0
scalar RSUExampleCatania.node[22].nic.mac1609_4 TotalLostPackets 316
scalar RSUExampleCatania.node[22].nic.mac1609_4 DroppedPacketsInMac 0
scalar RSUExampleCatania.node[22].nic.mac1609_4 TooLittleTime 0
scalar RSUExampleCatania.node[22].nic.mac1609_4 TimesIntoBackoff 76
scalar RSUExampleCatania.node[22].nic.mac1609_4 SlotsBackoff 111
scalar RSUExampleCatania.node[22].nic.mac1609_4 NumInternalContention 0
scalar RSUExampleCatania.node[22].nic.mac1609_4 totalBusyTime 0.291436
scalar RSUExampleCatania.node[22].veinsmobility startTime 28
scalar RSUExampleCatania.node[22].veinsmobility totalTime 75
scalar RSUExampleCatania.node[22].veinsmobility stopTime 103.19197267485
scalar RSUExampleCatania.node[22].veinsmobility minSpeed 0.35358643055576
scalar RSUExampleCatania.node[22].veinsmobility maxSpeed 15.985184438247
scalar RSUExampleCatania.node[22].veinsmobility totalDistance 942.60017501462
scalar RSUExampleCatania.node[22].veinsmobility totalCO2Emission 261.22843830335
scalar RSUExampleCatania.node[24].appl generatedWSMs 1
scalar RSUExampleCatania.node[24].appl receivedWSMs 45
scalar RSUExampleCatania.node[24].appl generatedBSMs 73
scalar RSUExampleCatania.node[24].appl receivedBSMs 2267
scalar RSUExampleCatania.node[24].appl generatedWSAs 0
scalar RSUExampleCatania.node[24].appl receivedWSAs 0
scalar RSUExampleCatania.node[24].nic.phy80211p busyTime 0.0038234721918905
scalar RSUExampleCatania.node[24].nic.mac1609_4 ReceivedUnicastPackets 0
scalar RSUExampleCatania.node[24].nic.mac1609_4 ReceivedBroadcasts 2312
scalar RSUExampleCatania.node[24].nic.mac1609_4 SentPackets 74
scalar RSUExampleCatania.node[24].nic.mac1609_4 SentAcknowledgements 0
scalar RSUExampleCatania.node[24].nic.mac1609_4 SNIRLostPackets 283
scalar RSUExampleCatania.node[24].nic.mac1609_4 RXTXLostPackets 0
scalar RSUExampleCatania.node[24].nic.mac1609_4 TotalLostPackets 283
scalar RSUExampleCatania.node[24].nic.mac1609_4 DroppedPacketsInMac 0
scalar RSUExampleCatania.node[24].nic.mac1609_4 TooLittleTime 0
scalar RSUExampleCatania.node[24].nic.mac1609_4 TimesIntoBackoff 74
scalar RSUExampleCatania.node[24].nic.mac1609_4 SlotsBackoff 120
scalar RSUExampleCatania.node[24].nic.mac1609_4 NumInternalContention 0
scalar RSUExampleCatania.node[24].nic.mac1609_4 totalBusyTime 0.283714
scalar RSUExampleCatania.node[24].veinsmobility startTime 31
scalar RSUExampleCatania.node[24].veinsmobility totalTime 72
scalar RSUExampleCatania.node[24].veinsmobility stopTime 103.19197267485
scalar RSUExampleCatania.node[24].veinsmobility minSpeed 2.118741233414
scalar RSUExampleCatania.node[24].veinsmobility maxSpeed 15.845397957251
scalar RSUExampleCatania.node[24].veinsmobility totalDistance 908.68415158752
scalar RSUExampleCatania.node[24].veinsmobility totalCO2Emission 253.20697604395
scalar RSUExampleCatania.node[26].appl generatedWSMs 1
scalar RSUExampleCatania.node[26].appl receivedWSMs 46
scalar RSUExampleCatania.node[26].appl generatedBSMs 70
scalar RSUExampleCatania.node[26].appl receivedBSMs 2231
scalar RSUExampleCatania.node[26].appl generatedWSAs 0
scalar RSUExampleCatania.node[26].appl receivedWSAs 0
scalar RSUExampleCatania.node[26].nic.phy80211p busyTime 0.0039493974800246
scalar RSUExampleCatania.node[26].nic.mac1609_4 ReceivedUnicastPackets 0
scalar RSUExampleCatania.node[26].nic.mac1609_4 ReceivedBroadcasts 2277
scalar RSUExampleCatania.node[26].nic.mac1609_4 SentPackets 71
scalar RSUExampleCatania.node[26].nic.mac1609_4 SentAcknowledgements 0
scalar RSUExampleCatania.node[26].nic.mac1609_4 SNIRLostPackets 327
scalar RSUExampleCatania.node[26].nic.mac1609_4 RXTXLostPackets 0
scalar RSUExampleCatania.node[26].nic.mac1609_4 TotalLostPackets 327
scalar RSUExampleCatania.node[26].nic.mac1609_4 DroppedPacketsInMac 0
scalar RSUExampleCatania.node[26].nic.mac1609_4 TooLittleTime 0
scalar RSUExampleCatania.node[26].nic.mac1609_4 TimesIntoBackoff 71
scalar RSUExampleCatania.node[26].nic.mac1609_4 SlotsBackoff 106
scalar RSUExampleCatania.node[26].nic.mac1609_4 NumInternalContention 0
scalar RSUExampleCatania.node[26].nic.mac1609_4 totalBusyTime 0.283967
scalar RSUExampleCatania.node[26].veinsmobility startTime 33
scalar RSUExampleCatania.node[26].veinsmobility totalTime 70
scalar RSUExampleCatania.node[26].veinsmobility stopTime 103.19197267485
scalar RSUExampleCatania.node[26].veinsmobility minSpeed 0
scalar RSUExampleCatania.node[26].veinsmobility maxSpeed 15.986315062759
scalar RSUExampleCatania.node[26].veinsmobility totalDistance 683.84013891488
scalar RSUExampleCatania.node[26].veinsmobility totalCO2Emission 206.03073857182
scalar RSUExampleCatania.node[28].appl generatedWSMs 1
scalar RSUExampleCatania.node[28].appl receivedWSMs 46
scalar RSUExampleCatania.node[28].appl generatedBSMs 67
scalar RSUExampleCatania.node[28].appl receivedBSMs 2172
scalar RSUExampleCatania.node[28].appl generatedWSAs 0
scalar RSUExampleCatania.node[28].appl receivedWSAs 0
scalar RSUExampleCatania.node[28].nic.phy80211p busyTime 0.0040370298593948
scalar RSUExampleCatania.node[28].nic.mac1609_4 ReceivedUnicastPackets 0
scalar RSUExampleCatania.node[28].nic.mac1609_4 ReceivedBroadcasts 2218
scalar RSUExampleCatania.node[28].nic.mac1609_4 SentPackets 68
scalar RSUExampleCatania.node[28].nic.mac1609_4 SentAcknowledgements 0
scalar RSUExampleCatania.node[28].nic.mac1609_4 SNIRLostPackets 325
scalar RSUExampleCatania.node[28].nic.mac1609_4 RXTXLostPackets 0
scalar RSUExampleCatania.node[28].nic.mac1609_4 TotalLostPackets 325
scalar RSUExampleCatania.node[28].nic.mac1609_4 DroppedPacketsInMac 0
scalar RSUExampleCatania.node[28].nic.mac1609_4 TooLittleTime 0
scalar RSUExampleCatania.node[28].nic.mac1609_4 TimesIntoBackoff 68
scalar RSUExampleCatania.node[28].nic.mac1609_4 SlotsBackoff 89
scalar RSUExampleCatania.node[28].nic.mac1609_4 NumInternalContention 0
scalar RSUExampleCatania.node[28].nic.mac1609_4 totalBusyTime 0.277172
scalar RSUExampleCatania.node[28].veinsmobility startTime 36
scalar RSUExampleCatania.node[28].veinsmobility totalTime 67
scalar RSUExampleCatania.node[28].veinsmobility stopTime 103.19197267485
scalar RSUExampleCatania.node[28].veinsmobility minSpeed 0
scalar RSUExampleCatania.node[28].veinsmobility maxSpeed 15.981941896654
scalar RSUExampleCatania.node[28].veinsmobility totalDistance 673.69491466983
scalar RSUExampleCatania.node[28].veinsmobility totalCO2Emission 202.00798164095
scalar RSUExampleCatania.node[30].appl generatedWSMs 1
scalar RSUExampleCatania.node[30].appl receivedWSMs 46
scalar RSUExampleCatania.node[30].appl generatedBSMs 65
scalar RSUExampleCatania.node[30].appl receivedBSMs 2186
scalar RSUExampleCatania.node[30].appl generatedWSAs 0
scalar RSUExampleCatania.node[30].appl receivedWSAs 0
scalar RSUExampleCatania.node[30].nic.phy80211p busyTime 0.0041776922652485
scalar RSUExampleCatania.node[30].nic.mac1609_4 ReceivedUnicastPackets 0
scalar RSUExampleCatania.node[30].nic.mac1609_4 ReceivedBroadcasts 2232
scalar RSUExampleCatania.node[30].nic.mac1609_4 SentPackets 66
scalar RSUExampleCatania.node[30].nic.mac1609_4 SentAcknowledgements 0
scalar RSUExampleCatania.node[30].nic.mac1609_4 SNIRLostPackets 324
scalar RSUExampleCatania.node[30].nic.mac1609_4 RXTXLostPackets 0
scalar RSUExampleCatania.node[30].nic.mac1609_4 TotalLostPackets 324
scalar RSUExampleCatania.node[30].nic.mac1609_4 DroppedPacketsInMac 0
scalar RSUExampleCatania.node[30].nic.mac1609_4 TooLittleTime 0
scalar RSUExampleCatania.node[30].nic.mac1609_4 TimesIntoBackoff 66
scalar RSUExampleCatania.node[30].nic.mac1609_4 SlotsBackoff 90
scalar RSUExampleCatania.node[30].nic.mac1609_4 NumInternalContention 0
scalar RSUExampleCatania.node[30].nic.mac1609_4 totalBusyTime 0.278058
scalar RSUExampleCatania.node[30].veinsmobility startTime 38
scalar RSUExampleCatania.node[30].veinsmobility totalTime 65
scalar RSUExampleCatania.node[30].veinsmobility stopTime 103.19197267485
scalar RSUExampleCatania.node[30].veinsmobility minSpeed 0
scalar RSUExampleCatania.node[30].veinsmobility maxSpeed 15.940886240453
scalar RSUExampleCatania.node[30].veinsmobility totalDistance 673.84378888183
scalar RSUExampleCatania.node[30].veinsmobility totalCO2Emission 194.87803219551
scalar RSUExampleCatania.node[31].appl generatedWSMs 1
scalar RSUExampleCatania.node[31].appl receivedWSMs 46
scalar RSUExampleCatania.node[31].appl generatedBSMs 63
scalar RSUExampleCatania.node[31].appl receivedBSMs 2069
scalar RSUExampleCatania.node[31].appl generatedWSAs 0
scalar RSUExampleCatania.node[31].appl receivedWSAs 0
scalar RSUExampleCatania.node[31].nic.phy80211p busyTime 0.0041391333254597
scalar RSUExampleCatania.node[31].nic.mac1609_4 ReceivedUnicastPackets 0
scalar RSUExampleCatania.node[31].nic.mac1609_4 ReceivedBroadcasts 2115
scalar RSUExampleCatania.node[31].nic.mac1609_4 SentPackets 64
scalar RSUExampleCatania.node[31].nic.mac1609_4 SentAcknowledgements 0
scalar RSUExampleCatania.node[31].nic.mac1609_4 SNIRLostPackets 336
scalar RSUExampleCatania.node[31].nic.mac1609_4 RXTXLostPackets 0
scalar RSUExampleCatania.node[31].nic.mac1609_4 TotalLostPackets 336
scalar RSUExampleCatania.node[31].nic.mac1609_4 DroppedPacketsInMac 0
scalar RSUExampleCatania.node[31].nic.mac1609_4 TooLittleTime 0
scalar RSUExampleCatania.node[31].nic.mac1609_4 TimesIntoBackoff 64
scalar RSUExampleCatania.node[31].nic.mac1609_4 SlotsBackoff 91
scalar RSUExampleCatania.node[31].nic.mac1609_4 NumInternalContention 0
scalar RSUExampleCatania.node[31].nic.mac1609_4 totalBusyTime 0.267368
scalar RSUExampleCatania.node[31].veinsmobility startTime 40
scalar RSUExampleCatania.node[31].veinsmobility totalTime 63
scalar RSUExampleCatania.node[31].veinsmobility stopTime 103.19197267485
scalar RSUExampleCatania.node[31].veinsmobility minSpeed 0
scalar RSUExampleCatania.node[31].veinsmobility maxSpeed 15.970681228163
scalar RSUExampleCatania.node[31].veinsmobility totalDistance 663.63718848257
scalar RSUExampleCatania.node[31].veinsmobility totalCO2Emission 199.85997487066
scalar RSUExampleCatania.node[34].appl generatedWSMs 1
scalar RSUExampleCatania.node[34].appl receivedWSMs 47
scalar RSUExampleCatania.node[34].appl generatedBSMs 60
scalar RSUExampleCatania.node[34].appl receivedBSMs 1988
scalar RSUExampleCatania.node[34].appl generatedWSAs 0
scalar RSUExampleCatania.node[34].appl receivedWSAs 0
scalar RSUExampleCatania.node[34].nic.phy80211p busyTime 0.0042231544955865
scalar RSUExampleCatania.node[34].nic.mac1609_4 ReceivedUnicastPackets 0
scalar RSUExampleCatania.node[34].nic.mac1609_4 ReceivedBroadcasts 2035
scalar RSUExampleCatania.node[34].nic.mac1609_4 SentPackets 61
scalar RSUExampleCatania.node[34].nic.mac1609_4 SentAcknowledgements 0
scalar RSUExampleCatania.node[34].nic.mac1609_4 SNIRLostPackets 344
scalar RSUExampleCatania.node[34].nic.mac1609_4 RXTXLostPackets 0
scalar RSUExampleCatania.node[34].nic.mac1609_4 TotalLostPackets 344
scalar RSUExampleCatania.node[34].nic.mac1609_4 DroppedPacketsInMac 0
scalar RSUExampleCatania.node[34].nic.mac1609_4 TooLittleTime 0
scalar RSUExampleCatania.node[34].nic.mac1609_4 TimesIntoBackoff 61
scalar RSUExampleCatania.node[34].nic.mac1609_4 SlotsBackoff 97
scalar RSUExampleCatania.node[34].nic.mac1609_4 NumInternalContention 0
scalar RSUExampleCatania.node[34].nic.mac1609_4 totalBusyTime 0.259485
scalar RSUExampleCatania.node[34].veinsmobility startTime 43
scalar RSUExampleCatania.node[34].veinsmobility totalTime 60
scalar RSUExampleCatania.node[34].veinsmobility stopTime 103.19197267485
scalar RSUExampleCatania.node[34].veinsmobility minSpeed 0.81603666146942
scalar RSUExampleCatania.node[34].veinsmobility maxSpeed 15.993478924851
scalar RSUExampleCatania.node[34].veinsmobility totalDistance 668.16350479605
scalar RSUExampleCatania.node[34].veinsmobility totalCO2Emission 200.33863477139
scalar RSUExampleCatania.node[36].appl generatedWSMs 1
scalar RSUExampleCatania.node[36].appl receivedWSMs 46
scalar RSUExampleCatania.node[36].appl generatedBSMs 57
scalar RSUExampleCatania.node[36].appl receivedBSMs 1868
scalar RSUExampleCatania.node[36].appl generatedWSAs 0
scalar RSUExampleCatania.node[36].appl receivedWSAs 0
scalar RSUExampleCatania.node[36].nic.phy80211p busyTime 0.0042782227742183
scalar RSUExampleCatania.node[36].nic.mac1609_4 ReceivedUnicastPackets 0
scalar RSUExampleCatania.node[36].nic.mac1609_4 ReceivedBroadcasts 1914
scalar RSUExampleCatania.node[36].nic.mac1609_4 SentPackets 58
scalar RSUExampleCatania.node[36].nic.mac1609_4 SentAcknowledgements 0
scalar RSUExampleCatania.node[36].nic.mac1609_4 SNIRLostPackets 371
scalar RSUExampleCatania.node[36].nic.mac1609_4 RXTXLostPackets 0
scalar RSUExampleCatania.node[36].nic.mac1609_4 TotalLostPackets 371
scalar RSUExampleCatania.node[36].nic.mac1609_4 DroppedPacketsInMac 0
scalar RSUExampleCatania.node[36].nic.mac1609_4 TooLittleTime 0
scalar RSUExampleCatania.node[36].nic.mac1609_4 TimesIntoBackoff 58
scalar RSUExampleCatania.node[36].nic.mac1609_4 SlotsBackoff 73
scalar RSUExampleCatania.node[36].nic.mac1609_4 NumInternalContention 0
scalar RSUExampleCatania.node[36].nic.mac1609_4 totalBusyTime 0.249754
scalar RSUExampleCatania.node[36].veinsmobility startTime 46
scalar RSUExampleCatania.node[36].veinsmobility totalTime 57
scalar RSUExampleCatania.node[36].veinsmobility stopTime 103.19197267485
scalar RSUExampleCatania.node[36].veinsmobility minSpeed 1.358398103067
scalar RSUExampleCatania.node[36].veinsmobility maxSpeed 15.945794385602
scalar RSUExampleCatania.node[36].veinsmobility totalDistance 657.46160768911
scalar RSUExampleCatania.node[36].veinsmobility totalCO2Emission 183.18777126692
scalar RSUExampleCatania.node[38].appl generatedWSMs 1
scalar RSUExampleCatania.node[38].appl receivedWSMs 48
scalar RSUExampleCatania.node[38].appl generatedBSMs 56
scalar RSUExampleCatania.node[38].appl receivedBSMs 1744
scalar RSUExampleCatania.node[38].appl generatedWSAs 0
scalar RSUExampleCatania.node[38].appl receivedWSAs 0
scalar RSUExampleCatania.node[38].nic.phy80211p busyTime 0.0042683018667924
scalar RSUExampleCatania.node[38].nic.mac1609_4 ReceivedUnicastPackets 0
scalar RSUExampleCatania.node[38].nic.mac1609_4 ReceivedBroadcasts 1792
scalar RSUExampleCatania.node[38].nic.mac1609_4 SentPackets 57
scalar RSUExampleCatania.node[38].nic.mac1609_4 SentAcknowledgements 0
scalar RSUExampleCatania.node[38].nic.mac1609_4 SNIRLostPackets 403
scalar RSUExampleCatania.node[38].nic.mac1609_4 RXTXLostPackets 0
scalar RSUExampleCatania.node[38].nic.mac1609_4 TotalLostPackets 403
scalar RSUExampleCatania.node[38].nic.mac1609_4 DroppedPacketsInMac 0
scalar RSUExampleCatania.node[38].nic.mac1609_4 TooLittleTime 0
scalar RSUExampleCatania.node[38].nic.mac1609_4 TimesIntoBackoff 57
scalar RSUExampleCatania.node[38].nic.mac1609_4 SlotsBackoff 91
scalar RSUExampleCatania.node[38].nic.mac1609_4 NumInternalContention 0
scalar RSUExampleCatania.node[38].nic.mac1609_4 totalBusyTime 0.240337
scalar RSUExampleCatania.node[38].veinsmobility startTime 48
scalar RSUExampleCatania.node[38].veinsmobility totalTime 55
scalar RSUExampleCatania.node[38].veinsmobility stopTime 103.19197267485
scalar RSUExampleCatania.node[38].veinsmobility minSpeed 0.59779876738809
scalar RSUExampleCatania.node[38].veinsmobility maxSpeed 15.992016874393
scalar RSUExampleCatania.node[38].veinsmobility totalDistance 629.0454902136
scalar RSUExampleCatania.node[38].veinsmobility totalCO2Emission 215.72089671741
scalar RSUExampleCatania.node[4].appl generatedWSMs 1
scalar RSUExampleCatania.node[4].appl receivedWSMs 28
scalar RSUExampleCatania.node[4].appl generatedBSMs 98
scalar RSUExampleCatania.node[4].appl receivedBSMs 1826
scalar RSUExampleCatania.node[4].appl generatedWSAs 0
scalar RSUExampleCatania.node[4].appl receivedWSAs 0
scalar RSUExampleCatania.node[4].nic.phy80211p busyTime 0.0026403787696427
scalar RSUExampleCatania.node[4].nic.mac1609_4 ReceivedUnicastPackets 0
scalar RSUExampleCatania.node[4].nic.mac1609_4 ReceivedBroadcasts 1854
scalar RSUExampleCatania.node[4].nic.mac1609_4 SentPackets 99
scalar RSUExampleCatania.node[4].nic.mac1609_4 SentAcknowledgements 0
scalar RSUExampleCatania.node[4].nic.mac1609_4 SNIRLostPackets 586
scalar RSUExampleCatania.node[4].nic.mac1609_4 RXTXLostPackets 0
scalar RSUExampleCatania.node[4].nic.mac1609_4 TotalLostPackets 586
scalar RSUExampleCatania.node[4].nic.mac1609_4 DroppedPacketsInMac 0
scalar RSUExampleCatania.node[4].nic.mac1609_4 TooLittleTime 0
scalar RSUExampleCatania.node[4].nic.mac1609_4 TimesIntoBackoff 99
scalar RSUExampleCatania.node[4].nic.mac1609_4 SlotsBackoff 147
scalar RSUExampleCatania.node[4].nic.mac1609_4 NumInternalContention 0
scalar RSUExampleCatania.node[4].nic.mac1609_4 totalBusyTime 0.269683
scalar RSUExampleCatania.node[4].veinsmobility startTime 5
scalar RSUExampleCatania.node[4].veinsmobility totalTime 98
scalar RSUExampleCatania.node[4].veinsmobility stopTime 103.19197267485
scalar RSUExampleCatania.node[4].veinsmobility minSpeed 0.43621021959526
scalar RSUExampleCatania.node[4].veinsmobility maxSpeed 15.990193969943
scalar RSUExampleCatania.node[4].veinsmobility totalDistance 1310.9032808434
scalar RSUExampleCatania.node[4].veinsmobility totalCO2Emission 344.3755105149
scalar RSUExampleCatania.node[40].appl generatedWSMs 1
scalar RSUExampleCatania.node[40].appl receivedWSMs 45
scalar RSUExampleCatania.node[40].appl generatedBSMs 52
scalar RSUExampleCatania.node[40].appl receivedBSMs 1527
scalar RSUExampleCatania.node[40].appl generatedWSAs 0
scalar RSUExampleCatania.node[40].appl receivedWSAs 0
scalar RSUExampleCatania.node[40].nic.phy80211p busyTime 0.0039901921565109
scalar RSUExampleCatania.node[40].nic.mac1609_4 ReceivedUnicastPackets 0
scalar RSUExampleCatania.node[40].nic.mac1609_4 ReceivedBroadcasts 1572
scalar RSUExampleCatania.node[40].nic.mac1609_4 SentPackets 53
scalar RSUExampleCatania.node[40].nic.mac1609_4 SentAcknowledgements 0
scalar RSUExampleCatania.node[40].nic.mac1609_4 SNIRLostPackets 364
scalar RSUExampleCatania.node[40].nic.mac1609_4 RXTXLostPackets 0
scalar RSUExampleCatania.node[40].nic.mac1609_4 TotalLostPackets 364
scalar RSUExampleCatania.node[40].nic.mac1609_4 DroppedPacketsInMac 0
scalar RSUExampleCatania.node[40].nic.mac1609_4 TooLittleTime 0
scalar RSUExampleCatania.node[40].nic.mac1609_4 TimesIntoBackoff 53
scalar RSUExampleCatania.node[40].nic.mac1609_4 SlotsBackoff 86
scalar RSUExampleCatania.node[40].nic.mac1609_4 NumInternalContention 0
scalar RSUExampleCatania.node[40].nic.mac1609_4 totalBusyTime 0.212805
scalar RSUExampleCatania.node[40].veinsmobility startTime 51
scalar RSUExampleCatania.node[40].veinsmobility totalTime 52
scalar RSUExampleCatania.node[40].veinsmobility stopTime 103.19197267485
scalar RSUExampleCatania.node[40].veinsmobility minSpeed 2.0497855465859
scalar RSUExampleCatania.node[40].veinsmobility maxSpeed 15.946382863307
scalar RSUExampleCatania.node[40].veinsmobility totalDistance 685.13296644922
scalar RSUExampleCatania.node[40].veinsmobility totalCO2Emission 169.14993154266
scalar RSUExampleCatania.node[42].appl generatedWSMs 1
scalar RSUExampleCatania.node[42].appl receivedWSMs 45
scalar RSUExampleCatania.node[42].appl generatedBSMs 51
scalar RSUExampleCatania.node[42].appl receivedBSMs 1641
scalar RSUExampleCatania.node[42].appl generatedWSAs 0
scalar RSUExampleCatania.node[42].appl receivedWSAs 0
scalar RSUExampleCatania.node[42].nic.phy80211p busyTime 0.0043626099619259
scalar RSUExampleCatania.node[42].nic.mac1609_4 ReceivedUnicastPackets 0
scalar RSUExampleCatania.node[42].nic.mac1609_4 ReceivedBroadcasts 1686
scalar RSUExampleCatania.node[42].nic.mac1609_4 SentPackets 52
scalar RSUExampleCatania.node[42].nic.mac1609_4 SentAcknowledgements 0
scalar RSUExampleCatania.node[42].nic.mac1609_4 SNIRLostPackets 353
scalar RSUExampleCatania.node[42].nic.mac1609_4 RXTXLostPackets 0
scalar RSUExampleCatania.node[42].nic.mac1609_4 TotalLostPackets 353
scalar RSUExampleCatania.node[42].nic.mac1609_4 DroppedPacketsInMac 0
scalar RSUExampleCatania.node[42].nic.mac1609_4 TooLittleTime 0
scalar RSUExampleCatania.node[42].nic.mac1609_4 TimesIntoBackoff 52
scalar RSUExampleCatania.node[42].nic.mac1609_4 SlotsBackoff 80
scalar RSUExampleCatania.node[42].nic.mac1609_4 NumInternalContention 0
scalar RSUExampleCatania.node[42].nic.mac1609_4 totalBusyTime 0.223724
scalar RSUExampleCatania.node[42].veinsmobility startTime 53
scalar RSUExampleCatania.node[42].veinsmobility totalTime 50
scalar RSUExampleCatania.node[42].veinsmobility stopTime 103.19197267485
scalar RSUExampleCatania.node[42].veinsmobility minSpeed 0.56445110310034
scalar RSUExampleCatania.node[42].veinsmobility maxSpeed 15.814273141441
scalar RSUExampleCatania.node[42].veinsmobility totalDistance 523.66714956653
scalar RSUExampleCatania.node[42].veinsmobility totalCO2Emission 189.40386115922
scalar RSUExampleCatania.node[44].appl generatedWSMs 1
scalar RSUExampleCatania.node[44].appl receivedWSMs 47
scalar RSUExampleCatania.node[44].appl generatedBSMs 47
scalar RSUExampleCatania.node[44].appl receivedBSMs 1532
scalar RSUExampleCatania.node[44].appl generatedWSAs 0
scalar RSUExampleCatania.node[44].appl receivedWSAs 0
scalar RSUExampleCatania.node[44].nic.phy80211p busyTime 0.0043512484933576
scalar RSUExampleCatania.node[44].nic.mac1609_4 ReceivedUnicastPackets 0
scalar RSUExampleCatania.node[44].nic.mac1609_4 ReceivedBroadcasts 1579
scalar RSUExampleCatania.node[44].nic.mac1609_4 SentPackets 48
scalar RSUExampleCatania.node[44].nic.mac1609_4 SentAcknowledgements 0
scalar RSUExampleCatania.node[44].nic.mac1609_4 SNIRLostPackets 329
scalar RSUExampleCatania.node[44].nic.mac1609_4 RXTXLostPackets 0
scalar RSUExampleCatania.node[44].nic.mac1609_4 TotalLostPackets 329
scalar RSUExampleCatania.node[44].nic.mac1609_4 DroppedPacketsInMac 0
scalar RSUExampleCatania.node[44].nic.mac1609_4 TooLittleTime 0
scalar RSUExampleCatania.node[44].nic.mac1609_4 TimesIntoBackoff 48
scalar RSUExampleCatania.node[44].nic.mac1609_4 SlotsBackoff 74
scalar RSUExampleCatania.node[44].nic.mac1609_4 NumInternalContention 0
scalar RSUExampleCatania.node[44].nic.mac1609_4 totalBusyTime 0.209992
scalar RSUExampleCatania.node[44].veinsmobility startTime 56
scalar RSUExampleCatania.node[44].veinsmobility totalTime 47
scalar RSUExampleCatania.node[44].veinsmobility stopTime 103.19197267485
scalar RSUExampleCatania.node[44].veinsmobility minSpeed 1.894751137719
scalar RSUExampleCatania.node[44].veinsmobility maxSpeed 15.951567663578
scalar RSUExampleCatania.node[44].veinsmobility totalDistance 555.07205064292
scalar RSUExampleCatania.node[44].veinsmobility totalCO2Emission 174.21571017886
scalar RSUExampleCatania.node[46].appl generatedWSMs 1
scalar RSUExampleCatania.node[46].appl receivedWSMs 44
scalar RSUExampleCatania.node[46].appl generatedBSMs 46
scalar RSUExampleCatania.node[46].appl receivedBSMs 1451
scalar RSUExampleCatania.node[46].appl generatedWSAs 0
scalar RSUExampleCatania.node[46].appl receivedWSAs 0
scalar RSUExampleCatania.node[46].nic.phy80211p busyTime 0.0043614825451005
scalar RSUExampleCatania.node[46].nic.mac1609_4 ReceivedUnicastPackets 0
scalar RSUExampleCatania.node[46].nic.mac1609_4 ReceivedBroadcasts 1495
scalar RSUExampleCatania.node[46].nic.mac1609_4 SentPackets 47
scalar RSUExampleCatania.node[46].nic.mac1609_4 SentAcknowledgements 0
scalar RSUExampleCatania.node[46].nic.mac1609_4 SNIRLostPackets 335
scalar RSUExampleCatania.node[46].nic.mac1609_4 RXTXLostPackets 0
scalar RSUExampleCatania.node[46].nic.mac1609_4 TotalLostPackets 335
scalar RSUExampleCatania.node[46].nic.mac1609_4 DroppedPacketsInMac 0
scalar RSUExampleCatania.node[46].nic.mac1609_4 TooLittleTime 0
scalar RSUExampleCatania.node[46].nic.mac1609_4 TimesIntoBackoff 47
scalar RSUExampleCatania.node[46].nic.mac1609_4 SlotsBackoff 73
scalar RSUExampleCatania.node[46].nic.mac1609_4 NumInternalContention 0
scalar RSUExampleCatania.node[46].nic.mac1609_4 totalBusyTime 0.201751
scalar RSUExampleCatania.node[46].veinsmobility startTime 58
scalar RSUExampleCatania.node[46].veinsmobility totalTime 45
scalar RSUExampleCatania.node[46].veinsmobility stopTime 103.19197267485
scalar RSUExampleCatania.node[46].veinsmobility minSpeed 0.39095511722831
scalar RSUExampleCatania.node[46].veinsmobility maxSpeed 15.999654484005
scalar RSUExampleCatania.node[46].veinsmobility totalDistance 490.59057228484
scalar RSUExampleCatania.node[46].veinsmobility totalCO2Emission 176.40302873563
scalar RSUExampleCatania.node[7].appl generatedWSMs 1
scalar RSUExampleCatania.node[7].appl receivedWSMs 30
scalar RSUExampleCatania.node[7].appl generatedBSMs 95
scalar RSUExampleCatania.node[7].appl receivedBSMs 1971
scalar RSUExampleCatania.node[7].appl generatedWSAs 0
scalar RSUExampleCatania.node[7].appl receivedWSAs 0
scalar RSUExampleCatania.node[7].nic.phy80211p busyTime 0.0028909160328044
scalar RSUExampleCatania.node[7].nic.mac1609_4 ReceivedUnicastPackets 0
scalar RSUExampleCatania.node[7].nic.mac1609_4 ReceivedBroadcasts 2001
scalar RSUExampleCatania.node[7].nic.mac1609_4 SentPackets 96
scalar RSUExampleCatania.node[7].nic.mac1609_4 SentAcknowledgements 0
scalar RSUExampleCatania.node[7].nic.mac1609_4 SNIRLostPackets 585
scalar RSUExampleCatania.node[7].nic.mac1609_4 RXTXLostPackets 0
scalar RSUExampleCatania.node[7].nic.mac1609_4 TotalLostPackets 585
scalar RSUExampleCatania.node[7].nic.mac1609_4 DroppedPacketsInMac 0
scalar RSUExampleCatania.node[7].nic.mac1609_4 TooLittleTime 0
scalar RSUExampleCatania.node[7].nic.mac1609_4 TimesIntoBackoff 96
scalar RSUExampleCatania.node[7].nic.mac1609_4 SlotsBackoff 138
scalar RSUExampleCatania.node[7].nic.mac1609_4 NumInternalContention 0
scalar RSUExampleCatania.node[7].nic.mac1609_4 totalBusyTime 0.285296
scalar RSUExampleCatania.node[7].veinsmobility startTime 8
scalar RSUExampleCatania.node[7].veinsmobility totalTime 95
scalar RSUExampleCatania.node[7].veinsmobility stopTime 103.19197267485
scalar RSUExampleCatania.node[7].veinsmobility minSpeed 2.0819719219108
scalar RSUExampleCatania.node[7].veinsmobility maxSpeed 15.997369743092
scalar RSUExampleCatania.node[7].veinsmobility totalDistance 1257.8231253955
scalar RSUExampleCatania.node[7].veinsmobility totalCO2Emission 322.18727597721
scalar RSUExampleCatania.node[8].appl generatedWSMs 1
scalar RSUExampleCatania.node[8].appl receivedWSMs 30
scalar RSUExampleCatania.node[8].appl generatedBSMs 94
scalar RSUExampleCatania.node[8].appl receivedBSMs 2051
scalar RSUExampleCatania.node[8].appl generatedWSAs 0
scalar RSUExampleCatania.node[8].appl receivedWSAs 0
scalar RSUExampleCatania.node[8].nic.phy80211p busyTime 0.0030210327340349
scalar RSUExampleCatania.node[8].nic.mac1609_4 ReceivedUnicastPackets 0
scalar RSUExampleCatania.node[8].nic.mac1609_4 ReceivedBroadcasts 2081
scalar RSUExampleCatania.node[8].nic.mac1609_4 SentPackets 95
scalar RSUExampleCatania.node[8].nic.mac1609_4 SentAcknowledgements 0
scalar RSUExampleCatania.node[8].nic.mac1609_4 SNIRLostPackets 566
scalar RSUExampleCatania.node[8].nic.mac1609_4 RXTXLostPackets 0
scalar RSUExampleCatania.node[8].nic.mac1609_4 TotalLostPackets 566
scalar RSUExampleCatania.node[8].nic.mac1609_4 DroppedPacketsInMac 0
scalar RSUExampleCatania.node[8].nic.mac1609_4 TooLittleTime 0
scalar RSUExampleCatania.node[8].nic.mac1609_4 TimesIntoBackoff 95
scalar RSUExampleCatania.node[8].nic.mac1609_4 SlotsBackoff 136
scalar RSUExampleCatania.node[8].nic.mac1609_4 NumInternalContention 0
scalar RSUExampleCatania.node[8].nic.mac1609_4 totalBusyTime 0.291535
scalar RSUExampleCatania.node[8].veinsmobility startTime 10
scalar RSUExampleCatania.node[8].veinsmobility totalTime 93
scalar RSUExampleCatania.node[8].veinsmobility stopTime 103.19197267485
scalar RSUExampleCatania.node[8].veinsmobility minSpeed 1.0007703726543
scalar RSUExampleCatania.node[8].veinsmobility maxSpeed 15.994867252489
scalar RSUExampleCatania.node[8].veinsmobility totalDistance 1222.7751926235
scalar RSUExampleCatania.node[8].veinsmobility totalCO2Emission 323.40752718602
scalar RSUExampleCatania.node[11].appl generatedWSMs 1
scalar RSUExampleCatania.node[11].appl receivedWSMs 33
scalar RSUExampleCatania.node[11].appl generatedBSMs 90
scalar RSUExampleCatania.node[11].appl receivedBSMs 2101
scalar RSUExampleCatania.node[11].appl generatedWSAs 0
scalar RSUExampleCatania.node[11].appl receivedWSAs 0
scalar RSUExampleCatania.node[11].nic.phy80211p busyTime 0.003123559576811
[...]
scalar RSUExampleCatania.node[52].nic.mac1609_4 SlotsBackoff 62
scalar RSUExampleCatania.node[52].nic.mac1609_4 NumInternalContention 0
scalar RSUExampleCatania.node[52].nic.mac1609_4 totalBusyTime 0.14151
scalar RSUExampleCatania.node[52].veinsmobility startTime 66
scalar RSUExampleCatania.node[52].veinsmobility totalTime 37
scalar RSUExampleCatania.node[52].veinsmobility stopTime 103.19197267485
scalar RSUExampleCatania.node[52].veinsmobility minSpeed 0.37699232200378
scalar RSUExampleCatania.node[52].veinsmobility maxSpeed 15.911944189086
scalar RSUExampleCatania.node[52].veinsmobility totalDistance 494.63296425752
scalar RSUExampleCatania.node[52].veinsmobility totalCO2Emission 115.07781436762
scalar RSUExampleCatania.node[68].appl generatedWSMs 1
scalar RSUExampleCatania.node[68].appl receivedWSMs 9
scalar RSUExampleCatania.node[68].appl generatedBSMs 13
scalar RSUExampleCatania.node[68].appl receivedBSMs 183
scalar RSUExampleCatania.node[68].appl generatedWSAs 0
scalar RSUExampleCatania.node[68].appl receivedWSAs 0
scalar RSUExampleCatania.node[68].nic.phy80211p busyTime 0.0018138303186168
scalar RSUExampleCatania.node[68].nic.mac1609_4 ReceivedUnicastPackets 0
scalar RSUExampleCatania.node[68].nic.mac1609_4 ReceivedBroadcasts 192
scalar RSUExampleCatania.node[68].nic.mac1609_4 SentPackets 14
scalar RSUExampleCatania.node[68].nic.mac1609_4 SentAcknowledgements 0
scalar RSUExampleCatania.node[68].nic.mac1609_4 SNIRLostPackets 27
scalar RSUExampleCatania.node[68].nic.mac1609_4 RXTXLostPackets 0
scalar RSUExampleCatania.node[68].nic.mac1609_4 TotalLostPackets 27
scalar RSUExampleCatania.node[68].nic.mac1609_4 DroppedPacketsInMac 0
scalar RSUExampleCatania.node[68].nic.mac1609_4 TooLittleTime 0
scalar RSUExampleCatania.node[68].nic.mac1609_4 TimesIntoBackoff 14
scalar RSUExampleCatania.node[68].nic.mac1609_4 SlotsBackoff 22
scalar RSUExampleCatania.node[68].nic.mac1609_4 NumInternalContention 0
scalar RSUExampleCatania.node[68].nic.mac1609_4 totalBusyTime 0.025526
scalar RSUExampleCatania.node[68].veinsmobility startTime 90
scalar RSUExampleCatania.node[68].veinsmobility totalTime 13
scalar RSUExampleCatania.node[68].veinsmobility stopTime 103.19197267485
scalar RSUExampleCatania.node[68].veinsmobility minSpeed 1.7050627776887
scalar RSUExampleCatania.node[68].veinsmobility maxSpeed 15.609677161323
scalar RSUExampleCatania.node[68].veinsmobility totalDistance 143.7891779322
scalar RSUExampleCatania.node[68].veinsmobility totalCO2Emission 53.763340930609
scalar RSUExampleCatania.node[69].appl generatedWSMs 1
scalar RSUExampleCatania.node[69].appl receivedWSMs 1
scalar RSUExampleCatania.node[69].appl generatedBSMs 10
scalar RSUExampleCatania.node[69].appl receivedBSMs 131
scalar RSUExampleCatania.node[69].appl generatedWSAs 0
scalar RSUExampleCatania.node[69].appl receivedWSAs 0
scalar RSUExampleCatania.node[69].nic.phy80211p busyTime 0.0015431752519134
scalar RSUExampleCatania.node[69].nic.mac1609_4 ReceivedUnicastPackets 0
scalar RSUExampleCatania.node[69].nic.mac1609_4 ReceivedBroadcasts 132
scalar RSUExampleCatania.node[69].nic.mac1609_4 SentPackets 11
scalar RSUExampleCatania.node[69].nic.mac1609_4 SentAcknowledgements 0
scalar RSUExampleCatania.node[69].nic.mac1609_4 SNIRLostPackets 18
scalar RSUExampleCatania.node[69].nic.mac1609_4 RXTXLostPackets 0
scalar RSUExampleCatania.node[69].nic.mac1609_4 TotalLostPackets 18
scalar RSUExampleCatania.node[69].nic.mac1609_4 DroppedPacketsInMac 0
scalar RSUExampleCatania.node[69].nic.mac1609_4 TooLittleTime 0
scalar RSUExampleCatania.node[69].nic.mac1609_4 TimesIntoBackoff 11
scalar RSUExampleCatania.node[69].nic.mac1609_4 SlotsBackoff 20
scalar RSUExampleCatania.node[69].nic.mac1609_4 NumInternalContention 0
scalar RSUExampleCatania.node[69].nic.mac1609_4 totalBusyTime 0.017011
scalar RSUExampleCatania.node[69].veinsmobility startTime 93
scalar RSUExampleCatania.node[69].veinsmobility totalTime 10
scalar RSUExampleCatania.node[69].veinsmobility stopTime 103.19197267485
scalar RSUExampleCatania.node[69].veinsmobility minSpeed 1.7249085372081
scalar RSUExampleCatania.node[69].veinsmobility maxSpeed 15.172414276516
scalar RSUExampleCatania.node[69].veinsmobility totalDistance 96.04037596233
scalar RSUExampleCatania.node[69].veinsmobility totalCO2Emission 46.110821397054
scalar RSUExampleCatania.node[54].appl generatedWSMs 1
scalar RSUExampleCatania.node[54].appl receivedWSMs 24
scalar RSUExampleCatania.node[54].appl generatedBSMs 34
scalar RSUExampleCatania.node[54].appl receivedBSMs 805
scalar RSUExampleCatania.node[54].appl generatedWSAs 0
scalar RSUExampleCatania.node[54].appl receivedWSAs 0
scalar RSUExampleCatania.node[54].nic.phy80211p busyTime 0.0034401056972807
scalar RSUExampleCatania.node[54].nic.mac1609_4 ReceivedUnicastPackets 0
scalar RSUExampleCatania.node[54].nic.mac1609_4 ReceivedBroadcasts 829
scalar RSUExampleCatania.node[54].nic.mac1609_4 SentPackets 35
scalar RSUExampleCatania.node[54].nic.mac1609_4 SentAcknowledgements 0
scalar RSUExampleCatania.node[54].nic.mac1609_4 SNIRLostPackets 270
scalar RSUExampleCatania.node[54].nic.mac1609_4 RXTXLostPackets 0
scalar RSUExampleCatania.node[54].nic.mac1609_4 TotalLostPackets 270
scalar RSUExampleCatania.node[54].nic.mac1609_4 DroppedPacketsInMac 0
scalar RSUExampleCatania.node[54].nic.mac1609_4 TooLittleTime 0
scalar RSUExampleCatania.node[54].nic.mac1609_4 TimesIntoBackoff 35
scalar RSUExampleCatania.node[54].nic.mac1609_4 SlotsBackoff 45
scalar RSUExampleCatania.node[54].nic.mac1609_4 NumInternalContention 0
scalar RSUExampleCatania.node[54].nic.mac1609_4 totalBusyTime 0.121427
scalar RSUExampleCatania.node[54].veinsmobility startTime 69
scalar RSUExampleCatania.node[54].veinsmobility totalTime 34
scalar RSUExampleCatania.node[54].veinsmobility stopTime 103.19197267485
scalar RSUExampleCatania.node[54].veinsmobility minSpeed 0.93132369991823
scalar RSUExampleCatania.node[54].veinsmobility maxSpeed 15.996753835026
scalar RSUExampleCatania.node[54].veinsmobility totalDistance 461.88335039633
scalar RSUExampleCatania.node[54].veinsmobility totalCO2Emission 107.82670227399
scalar RSUExampleCatania.node[56].appl generatedWSMs 1
scalar RSUExampleCatania.node[56].appl receivedWSMs 21
scalar RSUExampleCatania.node[56].appl generatedBSMs 32
scalar RSUExampleCatania.node[56].appl receivedBSMs 728
scalar RSUExampleCatania.node[56].appl generatedWSAs 0
scalar RSUExampleCatania.node[56].appl receivedWSAs 0
scalar RSUExampleCatania.node[56].nic.phy80211p busyTime 0.0033618906086234
scalar RSUExampleCatania.node[56].nic.mac1609_4 ReceivedUnicastPackets 0
scalar RSUExampleCatania.node[56].nic.mac1609_4 ReceivedBroadcasts 749
scalar RSUExampleCatania.node[56].nic.mac1609_4 SentPackets 33
scalar RSUExampleCatania.node[56].nic.mac1609_4 SentAcknowledgements 0
scalar RSUExampleCatania.node[56].nic.mac1609_4 SNIRLostPackets 231
scalar RSUExampleCatania.node[56].nic.mac1609_4 RXTXLostPackets 0
scalar RSUExampleCatania.node[56].nic.mac1609_4 TotalLostPackets 231
scalar RSUExampleCatania.node[56].nic.mac1609_4 DroppedPacketsInMac 0
scalar RSUExampleCatania.node[56].nic.mac1609_4 TooLittleTime 0
scalar RSUExampleCatania.node[56].nic.mac1609_4 TimesIntoBackoff 33
scalar RSUExampleCatania.node[56].nic.mac1609_4 SlotsBackoff 54
scalar RSUExampleCatania.node[56].nic.mac1609_4 NumInternalContention 0
scalar RSUExampleCatania.node[56].nic.mac1609_4 totalBusyTime 0.108457
scalar RSUExampleCatania.node[56].veinsmobility startTime 72
scalar RSUExampleCatania.node[56].veinsmobility totalTime 31
scalar RSUExampleCatania.node[56].veinsmobility stopTime 103.19197267485
scalar RSUExampleCatania.node[56].veinsmobility minSpeed 2.4297041027574
scalar RSUExampleCatania.node[56].veinsmobility maxSpeed 15.99947736999
scalar RSUExampleCatania.node[56].veinsmobility totalDistance 427.66235226126
scalar RSUExampleCatania.node[56].veinsmobility totalCO2Emission 93.24867535834
scalar RSUExampleCatania.node[58].appl generatedWSMs 1
scalar RSUExampleCatania.node[58].appl receivedWSMs 20
scalar RSUExampleCatania.node[58].appl generatedBSMs 29
scalar RSUExampleCatania.node[58].appl receivedBSMs 659
scalar RSUExampleCatania.node[58].appl generatedWSAs 0
scalar RSUExampleCatania.node[58].appl receivedWSAs 0
scalar RSUExampleCatania.node[58].nic.phy80211p busyTime 0.0032192411608065
scalar RSUExampleCatania.node[58].nic.mac1609_4 ReceivedUnicastPackets 0
scalar RSUExampleCatania.node[58].nic.mac1609_4 ReceivedBroadcasts 679
scalar RSUExampleCatania.node[58].nic.mac1609_4 SentPackets 30
scalar RSUExampleCatania.node[58].nic.mac1609_4 SentAcknowledgements 0
scalar RSUExampleCatania.node[58].nic.mac1609_4 SNIRLostPackets 200
scalar RSUExampleCatania.node[58].nic.mac1609_4 RXTXLostPackets 0
scalar RSUExampleCatania.node[58].nic.mac1609_4 TotalLostPackets 200
scalar RSUExampleCatania.node[58].nic.mac1609_4 DroppedPacketsInMac 0
scalar RSUExampleCatania.node[58].nic.mac1609_4 TooLittleTime 0
scalar RSUExampleCatania.node[58].nic.mac1609_4 TimesIntoBackoff 30
scalar RSUExampleCatania.node[58].nic.mac1609_4 SlotsBackoff 48
scalar RSUExampleCatania.node[58].nic.mac1609_4 NumInternalContention 0
scalar RSUExampleCatania.node[58].nic.mac1609_4 totalBusyTime 0.097254
scalar RSUExampleCatania.node[58].veinsmobility startTime 74
scalar RSUExampleCatania.node[58].veinsmobility totalTime 29
scalar RSUExampleCatania.node[58].veinsmobility stopTime 103.19197267485
scalar RSUExampleCatania.node[58].veinsmobility minSpeed 1.335932287994
scalar RSUExampleCatania.node[58].veinsmobility maxSpeed 15.787658949243
scalar RSUExampleCatania.node[58].veinsmobility totalDistance 382.30793066745
scalar RSUExampleCatania.node[58].veinsmobility totalCO2Emission 94.574452496215
scalar RSUExampleCatania.node[60].appl generatedWSMs 1
scalar RSUExampleCatania.node[60].appl receivedWSMs 20
scalar RSUExampleCatania.node[60].appl generatedBSMs 26
scalar RSUExampleCatania.node[60].appl receivedBSMs 575
scalar RSUExampleCatania.node[60].appl generatedWSAs 0
scalar RSUExampleCatania.node[60].appl receivedWSAs 0
scalar RSUExampleCatania.node[60].nic.phy80211p busyTime 0.0031789892664315
scalar RSUExampleCatania.node[60].nic.mac1609_4 ReceivedUnicastPackets 0
scalar RSUExampleCatania.node[60].nic.mac1609_4 ReceivedBroadcasts 595
scalar RSUExampleCatania.node[60].nic.mac1609_4 SentPackets 27
scalar RSUExampleCatania.node[60].nic.mac1609_4 SentAcknowledgements 0
scalar RSUExampleCatania.node[60].nic.mac1609_4 SNIRLostPackets 181
scalar RSUExampleCatania.node[60].nic.mac1609_4 RXTXLostPackets 0
scalar RSUExampleCatania.node[60].nic.mac1609_4 TotalLostPackets 181
scalar RSUExampleCatania.node[60].nic.mac1609_4 DroppedPacketsInMac 0
scalar RSUExampleCatania.node[60].nic.mac1609_4 TooLittleTime 0
scalar RSUExampleCatania.node[60].nic.mac1609_4 TimesIntoBackoff 27
scalar RSUExampleCatania.node[60].nic.mac1609_4 SlotsBackoff 47
scalar RSUExampleCatania.node[60].nic.mac1609_4 NumInternalContention 0
scalar RSUExampleCatania.node[60].nic.mac1609_4 totalBusyTime 0.086227
scalar RSUExampleCatania.node[60].veinsmobility startTime 77
scalar RSUExampleCatania.node[60].veinsmobility totalTime 26
scalar RSUExampleCatania.node[60].veinsmobility stopTime 103.19197267485
scalar RSUExampleCatania.node[60].veinsmobility minSpeed 2.3607867330778
scalar RSUExampleCatania.node[60].veinsmobility maxSpeed 15.903460949217
scalar RSUExampleCatania.node[60].veinsmobility totalDistance 345.8973931342
scalar RSUExampleCatania.node[60].veinsmobility totalCO2Emission 86.751357427902
scalar RSUExampleCatania.node[62].appl generatedWSMs 1
scalar RSUExampleCatania.node[62].appl receivedWSMs 20
scalar RSUExampleCatania.node[62].appl generatedBSMs 24
scalar RSUExampleCatania.node[62].appl receivedBSMs 480
scalar RSUExampleCatania.node[62].appl generatedWSAs 0
scalar RSUExampleCatania.node[62].appl receivedWSAs 0
scalar RSUExampleCatania.node[62].nic.phy80211p busyTime 0.0028442492443597
scalar RSUExampleCatania.node[62].nic.mac1609_4 ReceivedUnicastPackets 0
scalar RSUExampleCatania.node[62].nic.mac1609_4 ReceivedBroadcasts 500
scalar RSUExampleCatania.node[62].nic.mac1609_4 SentPackets 25
scalar RSUExampleCatania.node[62].nic.mac1609_4 SentAcknowledgements 0
scalar RSUExampleCatania.node[62].nic.mac1609_4 SNIRLostPackets 137
scalar RSUExampleCatania.node[62].nic.mac1609_4 RXTXLostPackets 0
scalar RSUExampleCatania.node[62].nic.mac1609_4 TotalLostPackets 137
scalar RSUExampleCatania.node[62].nic.mac1609_4 DroppedPacketsInMac 0
scalar RSUExampleCatania.node[62].nic.mac1609_4 TooLittleTime 0
scalar RSUExampleCatania.node[62].nic.mac1609_4 TimesIntoBackoff 25
scalar RSUExampleCatania.node[62].nic.mac1609_4 SlotsBackoff 40
scalar RSUExampleCatania.node[62].nic.mac1609_4 NumInternalContention 0
scalar RSUExampleCatania.node[62].nic.mac1609_4 totalBusyTime 0.071561
scalar RSUExampleCatania.node[62].veinsmobility startTime 79
scalar RSUExampleCatania.node[62].veinsmobility totalTime 24
scalar RSUExampleCatania.node[62].veinsmobility stopTime 103.19197267485
scalar RSUExampleCatania.node[62].veinsmobility minSpeed 1.0768693303664
scalar RSUExampleCatania.node[62].veinsmobility maxSpeed 15.970468440605
scalar RSUExampleCatania.node[62].veinsmobility totalDistance 301.89998125764
scalar RSUExampleCatania.node[62].veinsmobility totalCO2Emission 82.401475661741
scalar RSUExampleCatania.node[64].appl generatedWSMs 1
scalar RSUExampleCatania.node[64].appl receivedWSMs 18
scalar RSUExampleCatania.node[64].appl generatedBSMs 21
scalar RSUExampleCatania.node[64].appl receivedBSMs 378
scalar RSUExampleCatania.node[64].appl generatedWSAs 0
scalar RSUExampleCatania.node[64].appl receivedWSAs 0
scalar RSUExampleCatania.node[64].nic.phy80211p busyTime 0.0025352996072788
scalar RSUExampleCatania.node[64].nic.mac1609_4 ReceivedUnicastPackets 0
scalar RSUExampleCatania.node[64].nic.mac1609_4 ReceivedBroadcasts 396
scalar RSUExampleCatania.node[64].nic.mac1609_4 SentPackets 22
scalar RSUExampleCatania.node[64].nic.mac1609_4 SentAcknowledgements 0
scalar RSUExampleCatania.node[64].nic.mac1609_4 SNIRLostPackets 96
scalar RSUExampleCatania.node[64].nic.mac1609_4 RXTXLostPackets 0
scalar RSUExampleCatania.node[64].nic.mac1609_4 TotalLostPackets 96
scalar RSUExampleCatania.node[64].nic.mac1609_4 DroppedPacketsInMac 0
scalar RSUExampleCatania.node[64].nic.mac1609_4 TooLittleTime 0
scalar RSUExampleCatania.node[64].nic.mac1609_4 TimesIntoBackoff 22
scalar RSUExampleCatania.node[64].nic.mac1609_4 SlotsBackoff 35
scalar RSUExampleCatania.node[64].nic.mac1609_4 NumInternalContention 0
scalar RSUExampleCatania.node[64].nic.mac1609_4 totalBusyTime 0.056166
scalar RSUExampleCatania.node[64].veinsmobility startTime 82
scalar RSUExampleCatania.node[64].veinsmobility totalTime 21
scalar RSUExampleCatania.node[64].veinsmobility stopTime 103.19197267485
scalar RSUExampleCatania.node[64].veinsmobility minSpeed 1.4761767367367
scalar RSUExampleCatania.node[64].veinsmobility maxSpeed 15.921600116277
scalar RSUExampleCatania.node[64].veinsmobility totalDistance 269.75027401472
scalar RSUExampleCatania.node[64].veinsmobility totalCO2Emission 75.744885972283
scalar RSUExampleCatania.node[66].appl generatedWSMs 1
scalar RSUExampleCatania.node[66].appl receivedWSMs 16
scalar RSUExampleCatania.node[66].appl generatedBSMs 19
scalar RSUExampleCatania.node[66].appl receivedBSMs 290
scalar RSUExampleCatania.node[66].appl generatedWSAs 0
scalar RSUExampleCatania.node[66].appl receivedWSAs 0
scalar RSUExampleCatania.node[66].nic.phy80211p busyTime 0.002084204718175
scalar RSUExampleCatania.node[66].nic.mac1609_4 ReceivedUnicastPackets 0
scalar RSUExampleCatania.node[66].nic.mac1609_4 ReceivedBroadcasts 306
scalar RSUExampleCatania.node[66].nic.mac1609_4 SentPackets 20
scalar RSUExampleCatania.node[66].nic.mac1609_4 SentAcknowledgements 0
scalar RSUExampleCatania.node[66].nic.mac1609_4 SNIRLostPackets 53
scalar RSUExampleCatania.node[66].nic.mac1609_4 RXTXLostPackets 0
scalar RSUExampleCatania.node[66].nic.mac1609_4 TotalLostPackets 53
scalar RSUExampleCatania.node[66].nic.mac1609_4 DroppedPacketsInMac 0
scalar RSUExampleCatania.node[66].nic.mac1609_4 TooLittleTime 0
scalar RSUExampleCatania.node[66].nic.mac1609_4 TimesIntoBackoff 20
scalar RSUExampleCatania.node[66].nic.mac1609_4 SlotsBackoff 26
scalar RSUExampleCatania.node[66].nic.mac1609_4 NumInternalContention 0
scalar RSUExampleCatania.node[66].nic.mac1609_4 totalBusyTime 0.042124
scalar RSUExampleCatania.node[66].veinsmobility startTime 84
scalar RSUExampleCatania.node[66].veinsmobility totalTime 19
scalar RSUExampleCatania.node[66].veinsmobility stopTime 103.19197267485
scalar RSUExampleCatania.node[66].veinsmobility minSpeed 0.042869866463222
scalar RSUExampleCatania.node[66].veinsmobility maxSpeed 15.930462773191
scalar RSUExampleCatania.node[66].veinsmobility totalDistance 220.43534557796
scalar RSUExampleCatania.node[66].veinsmobility totalCO2Emission 72.47049475373
scalar RSUExampleCatania.node[67].appl generatedWSMs 1
scalar RSUExampleCatania.node[67].appl receivedWSMs 16
scalar RSUExampleCatania.node[67].appl generatedBSMs 16
scalar RSUExampleCatania.node[67].appl receivedBSMs 239
scalar RSUExampleCatania.node[67].appl generatedWSAs 0
scalar RSUExampleCatania.node[67].appl receivedWSAs 0
scalar RSUExampleCatania.node[67].nic.phy80211p busyTime 0.002014331462569
scalar RSUExampleCatania.node[67].nic.mac1609_4 ReceivedUnicastPackets 0
scalar RSUExampleCatania.node[67].nic.mac1609_4 ReceivedBroadcasts 255
scalar RSUExampleCatania.node[67].nic.mac1609_4 SentPackets 17
scalar RSUExampleCatania.node[67].nic.mac1609_4 SentAcknowledgements 0
scalar RSUExampleCatania.node[67].nic.mac1609_4 SNIRLostPackets 34
scalar RSUExampleCatania.node[67].nic.mac1609_4 RXTXLostPackets 0
scalar RSUExampleCatania.node[67].nic.mac1609_4 TotalLostPackets 34
scalar RSUExampleCatania.node[67].nic.mac1609_4 DroppedPacketsInMac 0
scalar RSUExampleCatania.node[67].nic.mac1609_4 TooLittleTime 0
scalar RSUExampleCatania.node[67].nic.mac1609_4 TimesIntoBackoff 17
scalar RSUExampleCatania.node[67].nic.mac1609_4 SlotsBackoff 25
scalar RSUExampleCatania.node[67].nic.mac1609_4 NumInternalContention 0
scalar RSUExampleCatania.node[67].nic.mac1609_4 totalBusyTime 0.034529
scalar RSUExampleCatania.node[67].veinsmobility startTime 87
scalar RSUExampleCatania.node[67].veinsmobility totalTime 16
scalar RSUExampleCatania.node[67].veinsmobility stopTime 103.19197267485
scalar RSUExampleCatania.node[67].veinsmobility minSpeed 1.235970910521
scalar RSUExampleCatania.node[67].veinsmobility maxSpeed 15.843948270055
scalar RSUExampleCatania.node[67].veinsmobility totalDistance 196.64312701542
scalar RSUExampleCatania.node[67].veinsmobility totalCO2Emission 71.454847416344
scalar RSUExampleCatania.manager roiArea 0
scalar RSUExampleCatania.rsu[0].appl generatedWSMs 0
scalar RSUExampleCatania.rsu[0].appl receivedWSMs 0
scalar RSUExampleCatania.rsu[0].appl generatedBSMs 103
scalar RSUExampleCatania.rsu[0].appl receivedBSMs 0
scalar RSUExampleCatania.rsu[0].appl generatedWSAs 0
scalar RSUExampleCatania.rsu[0].appl receivedWSAs 0
scalar RSUExampleCatania.rsu[0].nic.phy80211p busyTime 0.00070129485970802
scalar RSUExampleCatania.rsu[0].nic.mac1609_4 ReceivedUnicastPackets 0
scalar RSUExampleCatania.rsu[0].nic.mac1609_4 ReceivedBroadcasts 0
scalar RSUExampleCatania.rsu[0].nic.mac1609_4 SentPackets 103
scalar RSUExampleCatania.rsu[0].nic.mac1609_4 SentAcknowledgements 0
scalar RSUExampleCatania.rsu[0].nic.mac1609_4 SNIRLostPackets 686
scalar RSUExampleCatania.rsu[0].nic.mac1609_4 RXTXLostPackets 0
scalar RSUExampleCatania.rsu[0].nic.mac1609_4 TotalLostPackets 686
scalar RSUExampleCatania.rsu[0].nic.mac1609_4 DroppedPacketsInMac 0
scalar RSUExampleCatania.rsu[0].nic.mac1609_4 TooLittleTime 0
scalar RSUExampleCatania.rsu[0].nic.mac1609_4 TimesIntoBackoff 103
scalar RSUExampleCatania.rsu[0].nic.mac1609_4 SlotsBackoff 170
scalar RSUExampleCatania.rsu[0].nic.mac1609_4 NumInternalContention 0
scalar RSUExampleCatania.rsu[0].nic.mac1609_4 totalBusyTime 0.083183

