version 2
run WithChannelSwitching-0-20200806-15:52:48-71468
attr configname WithChannelSwitching
attr datetime 20200806-15:52:48
attr experiment WithChannelSwitching
attr inifile omnetpp.ini
attr iterationvars ""
attr iterationvarsf ""
attr measurement ""
attr network RSUExampleCatania
attr processid 71468
attr repetition 0
attr replication #0
attr resultdir results
attr runnumber 0
attr seedset 0
param *.**.nic.mac1609_4.useServiceChannel true
param *.node[*].appl.dataOnSch true
param *.rsu[*].appl.dataOnSch true
param *.playgroundSizeX 3000m
param *.playgroundSizeY 3000m
param *.playgroundSizeZ 50m
param *.annotations.draw true
param *.obstacles.obstacles "xmldoc(\"config.xml\", \"//AnalogueModel[@type='SimpleObstacleShadowing']/obstacles\")"
param *.manager.updateInterval 1s
param *.manager.host "\"localhost\""
param *.manager.port 9999
param *.manager.autoShutdown true
param *.manager.launchConfig "xmldoc(\"catania.launchd.xml\")"
param *.rsu[0].mobility.x 2000
param *.rsu[0].mobility.y 2000
param *.rsu[0].mobility.z 3
param *.rsu[*].applType "\"TraCIDemoRSU11p\""
param *.rsu[*].appl.headerLength "80 bit"
param *.rsu[*].appl.sendBeacons false
param *.rsu[*].appl.dataOnSch false
param *.rsu[*].appl.beaconInterval 1s
param *.rsu[*].appl.beaconUserPriority 7
param *.rsu[*].appl.dataUserPriority 5
param *.rsu[*].nic.phy80211p.antennaOffsetZ "0 m"
param *.connectionManager.sendDirect true
param *.connectionManager.maxInterfDist 2600m
param *.connectionManager.drawMaxIntfDist false
param *.**.nic.mac1609_4.useServiceChannel false
param *.**.nic.mac1609_4.txPower 20mW
param *.**.nic.mac1609_4.bitrate 6Mbps
param *.**.nic.phy80211p.minPowerLevel -110dBm
param *.**.nic.phy80211p.useNoiseFloor true
param *.**.nic.phy80211p.noiseFloor -98dBm
param *.**.nic.phy80211p.decider "xmldoc(\"config.xml\")"
param *.**.nic.phy80211p.analogueModels "xmldoc(\"config.xml\")"
param *.**.nic.phy80211p.usePropagationDelay true
param *.**.nic.phy80211p.antenna "xmldoc(\"antenna.xml\", \"/root/Antenna[@id='monopole']\")"
param *.node[*].nic.phy80211p.antennaOffsetY "0 m"
param *.node[*].nic.phy80211p.antennaOffsetZ "1000 m"
param *.node[*].applType "\"TraCIDemo11p\""
param *.node[*].appl.headerLength "80 bit"
param *.node[*].appl.sendBeacons false
param *.node[*].appl.dataOnSch false
param *.node[*].appl.beaconInterval 1s
param *.node[*].veinsmobility.x 0
param *.node[*].veinsmobility.y 0
param *.node[*].veinsmobility.z 0
param *.node[*].veinsmobility.setHostSpeed false
param *.node[*0].veinsmobility.accidentCount 1
param *.node[*0].veinsmobility.accidentStart 73s
param *.node[*0].veinsmobility.accidentDuration 50s

vector 0 RSUExampleCatania.node[0].veinsmobility posx ETV
vector 1 RSUExampleCatania.node[0].veinsmobility posy ETV
vector 2 RSUExampleCatania.node[1].veinsmobility posx ETV
vector 3 RSUExampleCatania.node[1].veinsmobility posy ETV
vector 4 RSUExampleCatania.node[0].veinsmobility speed ETV
vector 5 RSUExampleCatania.node[1].veinsmobility speed ETV
vector 6 RSUExampleCatania.node[2].veinsmobility posx ETV
vector 7 RSUExampleCatania.node[2].veinsmobility posy ETV
vector 8 RSUExampleCatania.node[3].veinsmobility posx ETV
vector 9 RSUExampleCatania.node[3].veinsmobility posy ETV
vector 10 RSUExampleCatania.node[0].veinsmobility acceleration ETV
vector 11 RSUExampleCatania.node[0].veinsmobility co2emission ETV
vector 12 RSUExampleCatania.node[1].veinsmobility acceleration ETV
vector 13 RSUExampleCatania.node[1].veinsmobility co2emission ETV
vector 14 RSUExampleCatania.node[2].veinsmobility speed ETV
vector 15 RSUExampleCatania.node[3].veinsmobility speed ETV
vector 16 RSUExampleCatania.node[4].veinsmobility posx ETV
vector 17 RSUExampleCatania.node[4].veinsmobility posy ETV
vector 18 RSUExampleCatania.node[2].veinsmobility acceleration ETV
vector 19 RSUExampleCatania.node[2].veinsmobility co2emission ETV
vector 20 RSUExampleCatania.node[3].veinsmobility acceleration ETV
vector 21 RSUExampleCatania.node[3].veinsmobility co2emission ETV
vector 22 RSUExampleCatania.node[5].veinsmobility posx ETV
vector 23 RSUExampleCatania.node[5].veinsmobility posy ETV
vector 24 RSUExampleCatania.node[4].veinsmobility speed ETV
vector 25 RSUExampleCatania.node[4].veinsmobility acceleration ETV
vector 26 RSUExampleCatania.node[4].veinsmobility co2emission ETV
vector 27 RSUExampleCatania.node[5].veinsmobility speed ETV
vector 28 RSUExampleCatania.node[6].veinsmobility posx ETV
vector 29 RSUExampleCatania.node[6].veinsmobility posy ETV
vector 30 RSUExampleCatania.node[7].veinsmobility posx ETV
vector 31 RSUExampleCatania.node[7].veinsmobility posy ETV
vector 32 RSUExampleCatania.node[5].veinsmobility acceleration ETV
vector 33 RSUExampleCatania.node[5].veinsmobility co2emission ETV
vector 34 RSUExampleCatania.node[6].veinsmobility speed ETV
vector 35 RSUExampleCatania.node[7].veinsmobility speed ETV
vector 36 RSUExampleCatania.node[8].veinsmobility posx ETV
vector 37 RSUExampleCatania.node[8].veinsmobility posy ETV
vector 38 RSUExampleCatania.node[6].veinsmobility acceleration ETV
vector 39 RSUExampleCatania.node[6].veinsmobility co2emission ETV
vector 40 RSUExampleCatania.node[7].veinsmobility acceleration ETV
vector 41 RSUExampleCatania.node[7].veinsmobility co2emission ETV
vector 42 RSUExampleCatania.node[9].veinsmobility posx ETV
vector 43 RSUExampleCatania.node[9].veinsmobility posy ETV
vector 44 RSUExampleCatania.node[8].veinsmobility speed ETV
vector 45 RSUExampleCatania.node[8].veinsmobility acceleration ETV
vector 46 RSUExampleCatania.node[8].veinsmobility co2emission ETV
vector 47 RSUExampleCatania.node[9].veinsmobility speed ETV
vector 48 RSUExampleCatania.node[10].veinsmobility posx ETV
vector 49 RSUExampleCatania.node[10].veinsmobility posy ETV
vector 50 RSUExampleCatania.node[11].veinsmobility posx ETV
vector 51 RSUExampleCatania.node[11].veinsmobility posy ETV
vector 52 RSUExampleCatania.node[9].veinsmobility acceleration ETV
vector 53 RSUExampleCatania.node[9].veinsmobility co2emission ETV
vector 54 RSUExampleCatania.node[10].veinsmobility speed ETV
vector 55 RSUExampleCatania.node[11].veinsmobility speed ETV
vector 56 RSUExampleCatania.node[12].veinsmobility posx ETV
vector 57 RSUExampleCatania.node[12].veinsmobility posy ETV
vector 58 RSUExampleCatania.node[10].veinsmobility acceleration ETV
vector 59 RSUExampleCatania.node[10].veinsmobility co2emission ETV
vector 60 RSUExampleCatania.node[11].veinsmobility acceleration ETV
vector 61 RSUExampleCatania.node[11].veinsmobility co2emission ETV
vector 62 RSUExampleCatania.node[13].veinsmobility posx ETV
vector 63 RSUExampleCatania.node[13].veinsmobility posy ETV
vector 64 RSUExampleCatania.node[12].veinsmobility speed ETV
vector 65 RSUExampleCatania.node[12].veinsmobility acceleration ETV
vector 66 RSUExampleCatania.node[12].veinsmobility co2emission ETV
vector 67 RSUExampleCatania.node[13].veinsmobility speed ETV
vector 68 RSUExampleCatania.node[14].veinsmobility posx ETV
vector 69 RSUExampleCatania.node[14].veinsmobility posy ETV
vector 70 RSUExampleCatania.node[13].veinsmobility acceleration ETV
vector 71 RSUExampleCatania.node[13].veinsmobility co2emission ETV
vector 72 RSUExampleCatania.node[15].veinsmobility posx ETV
vector 73 RSUExampleCatania.node[15].veinsmobility posy ETV
vector 74 RSUExampleCatania.node[14].veinsmobility speed ETV
vector 75 RSUExampleCatania.node[16].veinsmobility posx ETV
vector 76 RSUExampleCatania.node[16].veinsmobility posy ETV
vector 77 RSUExampleCatania.node[14].veinsmobility acceleration ETV
vector 78 RSUExampleCatania.node[14].veinsmobility co2emission ETV
vector 79 RSUExampleCatania.node[15].veinsmobility speed ETV
vector 80 RSUExampleCatania.node[15].veinsmobility acceleration ETV
vector 81 RSUExampleCatania.node[15].veinsmobility co2emission ETV
vector 82 RSUExampleCatania.node[16].veinsmobility speed ETV
vector 83 RSUExampleCatania.node[17].veinsmobility posx ETV
vector 84 RSUExampleCatania.node[17].veinsmobility posy ETV
vector 85 RSUExampleCatania.node[18].veinsmobility posx ETV
vector 86 RSUExampleCatania.node[18].veinsmobility posy ETV
vector 87 RSUExampleCatania.node[16].veinsmobility acceleration ETV
vector 88 RSUExampleCatania.node[16].veinsmobility co2emission ETV
vector 89 RSUExampleCatania.node[17].veinsmobility speed ETV
vector 90 RSUExampleCatania.node[18].veinsmobility speed ETV
vector 91 RSUExampleCatania.node[19].veinsmobility posx ETV
vector 92 RSUExampleCatania.node[19].veinsmobility posy ETV
vector 93 RSUExampleCatania.node[17].veinsmobility acceleration ETV
vector 94 RSUExampleCatania.node[17].veinsmobility co2emission ETV
vector 95 RSUExampleCatania.node[18].veinsmobility acceleration ETV
vector 96 RSUExampleCatania.node[18].veinsmobility co2emission ETV
vector 97 RSUExampleCatania.node[20].veinsmobility posx ETV
vector 98 RSUExampleCatania.node[20].veinsmobility posy ETV
vector 99 RSUExampleCatania.node[19].veinsmobility speed ETV
vector 100 RSUExampleCatania.node[19].veinsmobility acceleration ETV
vector 101 RSUExampleCatania.node[19].veinsmobility co2emission ETV
vector 102 RSUExampleCatania.node[20].veinsmobility speed ETV
vector 103 RSUExampleCatania.node[21].veinsmobility posx ETV
vector 104 RSUExampleCatania.node[21].veinsmobility posy ETV
vector 105 RSUExampleCatania.node[20].veinsmobility acceleration ETV
vector 106 RSUExampleCatania.node[20].veinsmobility co2emission ETV
vector 107 RSUExampleCatania.node[22].veinsmobility posx ETV
vector 108 RSUExampleCatania.node[22].veinsmobility posy ETV
vector 109 RSUExampleCatania.node[21].veinsmobility speed ETV
vector 110 RSUExampleCatania.node[21].veinsmobility acceleration ETV
vector 111 RSUExampleCatania.node[21].veinsmobility co2emission ETV
vector 112 RSUExampleCatania.node[22].veinsmobility speed ETV
vector 113 RSUExampleCatania.node[23].veinsmobility posx ETV
vector 114 RSUExampleCatania.node[23].veinsmobility posy ETV
vector 115 RSUExampleCatania.node[22].veinsmobility acceleration ETV
vector 116 RSUExampleCatania.node[22].veinsmobility co2emission ETV
vector 117 RSUExampleCatania.node[24].veinsmobility posx ETV
vector 118 RSUExampleCatania.node[24].veinsmobility posy ETV
vector 119 RSUExampleCatania.node[23].veinsmobility speed ETV
vector 120 RSUExampleCatania.node[23].veinsmobility acceleration ETV
vector 121 RSUExampleCatania.node[23].veinsmobility co2emission ETV
vector 122 RSUExampleCatania.node[24].veinsmobility speed ETV
vector 123 RSUExampleCatania.node[25].veinsmobility posx ETV
vector 124 RSUExampleCatania.node[25].veinsmobility posy ETV
vector 125 RSUExampleCatania.node[26].veinsmobility posx ETV
vector 126 RSUExampleCatania.node[26].veinsmobility posy ETV
vector 127 RSUExampleCatania.node[24].veinsmobility acceleration ETV
vector 128 RSUExampleCatania.node[24].veinsmobility co2emission ETV
vector 129 RSUExampleCatania.node[25].veinsmobility speed ETV
vector 130 RSUExampleCatania.node[26].veinsmobility speed ETV
vector 131 RSUExampleCatania.node[27].veinsmobility posx ETV
vector 132 RSUExampleCatania.node[27].veinsmobility posy ETV
vector 133 RSUExampleCatania.node[25].veinsmobility acceleration ETV
vector 134 RSUExampleCatania.node[25].veinsmobility co2emission ETV
vector 135 RSUExampleCatania.node[26].veinsmobility acceleration ETV
vector 136 RSUExampleCatania.node[26].veinsmobility co2emission ETV
vector 137 RSUExampleCatania.node[28].veinsmobility posx ETV
vector 138 RSUExampleCatania.node[28].veinsmobility posy ETV
vector 139 RSUExampleCatania.node[27].veinsmobility speed ETV
vector 140 RSUExampleCatania.node[27].veinsmobility acceleration ETV
vector 141 RSUExampleCatania.node[27].veinsmobility co2emission ETV
vector 142 RSUExampleCatania.node[28].veinsmobility speed ETV
vector 143 RSUExampleCatania.node[29].veinsmobility posx ETV
vector 144 RSUExampleCatania.node[29].veinsmobility posy ETV
vector 145 RSUExampleCatania.node[30].veinsmobility posx ETV
vector 146 RSUExampleCatania.node[30].veinsmobility posy ETV
vector 147 RSUExampleCatania.node[28].veinsmobility acceleration ETV
vector 148 RSUExampleCatania.node[28].veinsmobility co2emission ETV
vector 149 RSUExampleCatania.node[29].veinsmobility speed ETV
vector 150 RSUExampleCatania.node[30].veinsmobility speed ETV
vector 151 RSUExampleCatania.node[31].veinsmobility posx ETV
vector 152 RSUExampleCatania.node[31].veinsmobility posy ETV
vector 153 RSUExampleCatania.node[29].veinsmobility acceleration ETV
vector 154 RSUExampleCatania.node[29].veinsmobility co2emission ETV
vector 155 RSUExampleCatania.node[30].veinsmobility acceleration ETV
vector 156 RSUExampleCatania.node[30].veinsmobility co2emission ETV
vector 157 RSUExampleCatania.node[32].veinsmobility posx ETV
vector 158 RSUExampleCatania.node[32].veinsmobility posy ETV
vector 159 RSUExampleCatania.node[31].veinsmobility speed ETV
vector 160 RSUExampleCatania.node[31].veinsmobility acceleration ETV
vector 161 RSUExampleCatania.node[31].veinsmobility co2emission ETV
vector 162 RSUExampleCatania.node[32].veinsmobility speed ETV
vector 163 RSUExampleCatania.node[33].veinsmobility posx ETV
vector 164 RSUExampleCatania.node[33].veinsmobility posy ETV
vector 165 RSUExampleCatania.node[34].veinsmobility posx ETV
vector 166 RSUExampleCatania.node[34].veinsmobility posy ETV
vector 167 RSUExampleCatania.node[32].veinsmobility acceleration ETV
vector 168 RSUExampleCatania.node[32].veinsmobility co2emission ETV
vector 169 RSUExampleCatania.node[33].veinsmobility speed ETV
vector 170 RSUExampleCatania.node[34].veinsmobility speed ETV
vector 171 RSUExampleCatania.node[33].veinsmobility acceleration ETV
vector 172 RSUExampleCatania.node[33].veinsmobility co2emission ETV
vector 173 RSUExampleCatania.node[34].veinsmobility acceleration ETV
vector 174 RSUExampleCatania.node[34].veinsmobility co2emission ETV
vector 175 RSUExampleCatania.node[35].veinsmobility posx ETV
vector 176 RSUExampleCatania.node[35].veinsmobility posy ETV
vector 177 RSUExampleCatania.node[36].veinsmobility posx ETV
vector 178 RSUExampleCatania.node[36].veinsmobility posy ETV
vector 179 RSUExampleCatania.node[35].veinsmobility speed ETV
vector 180 RSUExampleCatania.node[36].veinsmobility speed ETV
vector 181 RSUExampleCatania.node[37].veinsmobility posx ETV
vector 182 RSUExampleCatania.node[37].veinsmobility posy ETV
vector 183 RSUExampleCatania.node[38].veinsmobility posx ETV
vector 184 RSUExampleCatania.node[38].veinsmobility posy ETV
vector 185 RSUExampleCatania.node[35].veinsmobility acceleration ETV
vector 186 RSUExampleCatania.node[35].veinsmobility co2emission ETV
vector 187 RSUExampleCatania.node[36].veinsmobility acceleration ETV
vector 188 RSUExampleCatania.node[36].veinsmobility co2emission ETV
vector 189 RSUExampleCatania.node[37].veinsmobility speed ETV
vector 190 RSUExampleCatania.node[38].veinsmobility speed ETV
vector 191 RSUExampleCatania.node[39].veinsmobility posx ETV
vector 192 RSUExampleCatania.node[39].veinsmobility posy ETV
vector 193 RSUExampleCatania.node[37].veinsmobility acceleration ETV
vector 194 RSUExampleCatania.node[37].veinsmobility co2emission ETV
vector 195 RSUExampleCatania.node[38].veinsmobility acceleration ETV
vector 196 RSUExampleCatania.node[38].veinsmobility co2emission ETV
vector 197 RSUExampleCatania.node[40].veinsmobility posx ETV
vector 198 RSUExampleCatania.node[40].veinsmobility posy ETV
vector 199 RSUExampleCatania.node[39].veinsmobility speed ETV
vector 200 RSUExampleCatania.node[39].veinsmobility acceleration ETV
vector 201 RSUExampleCatania.node[39].veinsmobility co2emission ETV
vector 202 RSUExampleCatania.node[40].veinsmobility speed ETV
vector 203 RSUExampleCatania.node[41].veinsmobility posx ETV
vector 204 RSUExampleCatania.node[41].veinsmobility posy ETV
vector 205 RSUExampleCatania.node[42].veinsmobility posx ETV
vector 206 RSUExampleCatania.node[42].veinsmobility posy ETV
vector 207 RSUExampleCatania.node[40].veinsmobility acceleration ETV
vector 208 RSUExampleCatania.node[40].veinsmobility co2emission ETV
vector 209 RSUExampleCatania.node[41].veinsmobility speed ETV
vector 210 RSUExampleCatania.node[42].veinsmobility speed ETV
vector 211 RSUExampleCatania.node[41].veinsmobility acceleration ETV
vector 212 RSUExampleCatania.node[41].veinsmobility co2emission ETV
vector 213 RSUExampleCatania.node[42].veinsmobility acceleration ETV
vector 214 RSUExampleCatania.node[42].veinsmobility co2emission ETV
vector 215 RSUExampleCatania.node[43].veinsmobility posx ETV
vector 216 RSUExampleCatania.node[43].veinsmobility posy ETV
vector 217 RSUExampleCatania.node[44].veinsmobility posx ETV
vector 218 RSUExampleCatania.node[44].veinsmobility posy ETV
vector 219 RSUExampleCatania.node[43].veinsmobility speed ETV
vector 220 RSUExampleCatania.node[44].veinsmobility speed ETV
vector 221 RSUExampleCatania.node[45].veinsmobility posx ETV
vector 222 RSUExampleCatania.node[45].veinsmobility posy ETV
vector 223 RSUExampleCatania.node[46].veinsmobility posx ETV
vector 224 RSUExampleCatania.node[46].veinsmobility posy ETV
vector 225 RSUExampleCatania.node[43].veinsmobility acceleration ETV
vector 226 RSUExampleCatania.node[43].veinsmobility co2emission ETV
vector 227 RSUExampleCatania.node[44].veinsmobility acceleration ETV
vector 228 RSUExampleCatania.node[44].veinsmobility co2emission ETV
vector 229 RSUExampleCatania.node[45].veinsmobility speed ETV
vector 230 RSUExampleCatania.node[46].veinsmobility speed ETV
vector 231 RSUExampleCatania.node[45].veinsmobility acceleration ETV
vector 232 RSUExampleCatania.node[45].veinsmobility co2emission ETV
vector 233 RSUExampleCatania.node[46].veinsmobility acceleration ETV
vector 234 RSUExampleCatania.node[46].veinsmobility co2emission ETV
vector 235 RSUExampleCatania.node[47].veinsmobility posx ETV
vector 236 RSUExampleCatania.node[47].veinsmobility posy ETV
vector 237 RSUExampleCatania.node[48].veinsmobility posx ETV
vector 238 RSUExampleCatania.node[48].veinsmobility posy ETV
vector 239 RSUExampleCatania.node[47].veinsmobility speed ETV
vector 240 RSUExampleCatania.node[48].veinsmobility speed ETV
vector 241 RSUExampleCatania.node[49].veinsmobility posx ETV
vector 242 RSUExampleCatania.node[49].veinsmobility posy ETV
vector 243 RSUExampleCatania.node[47].veinsmobility acceleration ETV
vector 244 RSUExampleCatania.node[47].veinsmobility co2emission ETV
vector 245 RSUExampleCatania.node[48].veinsmobility acceleration ETV
vector 246 RSUExampleCatania.node[48].veinsmobility co2emission ETV
vector 247 RSUExampleCatania.node[50].veinsmobility posx ETV
vector 248 RSUExampleCatania.node[50].veinsmobility posy ETV
vector 249 RSUExampleCatania.node[49].veinsmobility speed ETV
vector 250 RSUExampleCatania.node[49].veinsmobility acceleration ETV
vector 251 RSUExampleCatania.node[49].veinsmobility co2emission ETV
vector 252 RSUExampleCatania.node[50].veinsmobility speed ETV
vector 253 RSUExampleCatania.node[51].veinsmobility posx ETV
vector 254 RSUExampleCatania.node[51].veinsmobility posy ETV
vector 255 RSUExampleCatania.node[52].veinsmobility posx ETV
vector 256 RSUExampleCatania.node[52].veinsmobility posy ETV
vector 257 RSUExampleCatania.node[50].veinsmobility acceleration ETV
vector 258 RSUExampleCatania.node[50].veinsmobility co2emission ETV
vector 259 RSUExampleCatania.node[51].veinsmobility speed ETV
vector 260 RSUExampleCatania.node[52].veinsmobility speed ETV
vector 261 RSUExampleCatania.node[51].veinsmobility acceleration ETV
vector 262 RSUExampleCatania.node[51].veinsmobility co2emission ETV
vector 263 RSUExampleCatania.node[52].veinsmobility acceleration ETV
vector 264 RSUExampleCatania.node[52].veinsmobility co2emission ETV
vector 265 RSUExampleCatania.node[53].veinsmobility posx ETV
vector 266 RSUExampleCatania.node[53].veinsmobility posy ETV
vector 267 RSUExampleCatania.node[54].veinsmobility posx ETV
vector 268 RSUExampleCatania.node[54].veinsmobility posy ETV
vector 269 RSUExampleCatania.node[53].veinsmobility speed ETV
vector 270 RSUExampleCatania.node[54].veinsmobility speed ETV
vector 271 RSUExampleCatania.node[55].veinsmobility posx ETV
vector 272 RSUExampleCatania.node[55].veinsmobility posy ETV
vector 273 RSUExampleCatania.node[53].veinsmobility acceleration ETV
vector 274 RSUExampleCatania.node[53].veinsmobility co2emission ETV
vector 275 RSUExampleCatania.node[54].veinsmobility acceleration ETV
vector 276 RSUExampleCatania.node[54].veinsmobility co2emission ETV
vector 277 RSUExampleCatania.node[56].veinsmobility posx ETV
vector 278 RSUExampleCatania.node[56].veinsmobility posy ETV
vector 279 RSUExampleCatania.node[55].veinsmobility speed ETV
vector 280 RSUExampleCatania.node[57].veinsmobility posx ETV
vector 281 RSUExampleCatania.node[57].veinsmobility posy ETV
vector 282 RSUExampleCatania.node[55].veinsmobility acceleration ETV
vector 283 RSUExampleCatania.node[55].veinsmobility co2emission ETV
vector 284 RSUExampleCatania.node[56].veinsmobility speed ETV
vector 285 RSUExampleCatania.node[58].veinsmobility posx ETV
vector 286 RSUExampleCatania.node[58].veinsmobility posy ETV
vector 287 RSUExampleCatania.node[56].veinsmobility acceleration ETV
vector 288 RSUExampleCatania.node[56].veinsmobility co2emission ETV
vector 289 RSUExampleCatania.node[57].veinsmobility speed ETV
vector 290 RSUExampleCatania.node[57].veinsmobility acceleration ETV
vector 291 RSUExampleCatania.node[57].veinsmobility co2emission ETV
vector 292 RSUExampleCatania.node[58].veinsmobility speed ETV
vector 293 RSUExampleCatania.node[59].veinsmobility posx ETV
vector 294 RSUExampleCatania.node[59].veinsmobility posy ETV
vector 295 RSUExampleCatania.node[58].veinsmobility acceleration ETV
vector 296 RSUExampleCatania.node[58].veinsmobility co2emission ETV
vector 297 RSUExampleCatania.node[60].veinsmobility posx ETV
vector 298 RSUExampleCatania.node[60].veinsmobility posy ETV
vector 299 RSUExampleCatania.node[59].veinsmobility speed ETV
vector 300 RSUExampleCatania.node[59].veinsmobility acceleration ETV
vector 301 RSUExampleCatania.node[59].veinsmobility co2emission ETV
vector 302 RSUExampleCatania.node[60].veinsmobility speed ETV
vector 303 RSUExampleCatania.node[61].veinsmobility posx ETV
vector 304 RSUExampleCatania.node[61].veinsmobility posy ETV
vector 305 RSUExampleCatania.node[62].veinsmobility posx ETV
vector 306 RSUExampleCatania.node[62].veinsmobility posy ETV
vector 307 RSUExampleCatania.node[60].veinsmobility acceleration ETV
vector 308 RSUExampleCatania.node[60].veinsmobility co2emission ETV
vector 309 RSUExampleCatania.node[61].veinsmobility speed ETV
vector 310 RSUExampleCatania.node[62].veinsmobility speed ETV
vector 311 RSUExampleCatania.node[61].veinsmobility acceleration ETV
vector 312 RSUExampleCatania.node[61].veinsmobility co2emission ETV
vector 313 RSUExampleCatania.node[62].veinsmobility acceleration ETV
vector 314 RSUExampleCatania.node[62].veinsmobility co2emission ETV
vector 315 RSUExampleCatania.node[63].veinsmobility posx ETV
vector 316 RSUExampleCatania.node[63].veinsmobility posy ETV
vector 317 RSUExampleCatania.node[64].veinsmobility posx ETV
vector 318 RSUExampleCatania.node[64].veinsmobility posy ETV
vector 319 RSUExampleCatania.node[63].veinsmobility speed ETV
vector 320 RSUExampleCatania.node[64].veinsmobility speed ETV
vector 321 RSUExampleCatania.node[65].veinsmobility posx ETV
vector 322 RSUExampleCatania.node[65].veinsmobility posy ETV
vector 323 RSUExampleCatania.node[66].veinsmobility posx ETV
vector 324 RSUExampleCatania.node[66].veinsmobility posy ETV
vector 325 RSUExampleCatania.node[63].veinsmobility acceleration ETV
vector 326 RSUExampleCatania.node[63].veinsmobility co2emission ETV
vector 327 RSUExampleCatania.node[64].veinsmobility acceleration ETV
vector 328 RSUExampleCatania.node[64].veinsmobility co2emission ETV
vector 329 RSUExampleCatania.node[65].veinsmobility speed ETV
vector 330 RSUExampleCatania.node[66].veinsmobility speed ETV
vector 331 RSUExampleCatania.node[65].veinsmobility acceleration ETV
vector 332 RSUExampleCatania.node[65].veinsmobility co2emission ETV
vector 333 RSUExampleCatania.node[66].veinsmobility acceleration ETV
vector 334 RSUExampleCatania.node[66].veinsmobility co2emission ETV
vector 335 RSUExampleCatania.node[67].veinsmobility posx ETV
vector 336 RSUExampleCatania.node[67].veinsmobility posy ETV
vector 337 RSUExampleCatania.node[67].veinsmobility speed ETV
vector 338 RSUExampleCatania.node[67].veinsmobility acceleration ETV
vector 339 RSUExampleCatania.node[67].veinsmobility co2emission ETV
vector 340 RSUExampleCatania.node[68].veinsmobility posx ETV
vector 341 RSUExampleCatania.node[68].veinsmobility posy ETV
vector 342 RSUExampleCatania.node[68].veinsmobility speed ETV
vector 343 RSUExampleCatania.node[68].veinsmobility acceleration ETV
vector 344 RSUExampleCatania.node[68].veinsmobility co2emission ETV
vector 345 RSUExampleCatania.node[69].veinsmobility posx ETV
vector 346 RSUExampleCatania.node[69].veinsmobility posy ETV
vector 347 RSUExampleCatania.node[69].veinsmobility speed ETV
vector 348 RSUExampleCatania.node[69].veinsmobility acceleration ETV
vector 349 RSUExampleCatania.node[69].veinsmobility co2emission ETV
13	141	3	3.6211086383691
13	240	4	3.5288866095716
13	341	5	6.0192938043615
13	461	6	7.3221686285292
13	601	7	5.6851206126511
13	742	8	6.7123948090755
13	921	9	8.0121026982828
13	1102	10	2.8786236848779
13	1302	11	0.973
13	1522	12	2.4639111633826
13	1743	13	2.1363807014502
13	2002	14	6.2441872196306
13	2263	15	1.3181220627517
13	2543	16	0.973
13	2843	17	0.973
13	3144	18	0.973
13	3464	19	0.973
13	3804	20	5.3354728506996
13	4164	21	7.2754308369501
13	4525	22	5.3241661186203
13	4924	23	10.128515192619
13	5325	24	9.4948510382706
13	5745	25	2.6268824844312
13	6185	26	0.973
13	6626	27	5.4074798596568
13	7086	28	0.973
13	7566	29	4.7133185848509
13	8047	30	0.973
13	8547	31	5.458799211366
13	9067	32	2.3997966021049
13	9588	33	0.973
13	10147	34	1.5235855239862
13	10708	35	3.1967596112433
13	11288	36	1.681029437184
13	11888	37	1.0408488466082
13	12489	38	5.1891398118458
13	13128	39	0.973
13	13769	40	2.4422640038556
13	14429	41	0.973
13	15109	42	3.3594216565063
13	15790	43	2.499103201455
13	16509	44	1.4402746233224
13	17230	45	0.973
13	17951	46	0.973
13	18710	47	0.973
13	19471	48	6.4762894883978
13	20270	49	6.0701439284701
13	21071	50	7.4856325740282
13	21891	51	11.002738333924
13	22731	52	2.5008181592089
13	23572	53	0.973
13	24451	54	0.973
13	25332	55	0.973
13	26213	56	6.9669499098805
13	27132	57	5.619956946346
13	28053	58	5.5859759247539
13	29012	59	9.3921090057306
13	29973	60	6.8519327485804
13	30934	61	4.0773897587624
13	31933	62	1.9932566369429
13	32934	63	0.973
13	33954	64	2.9691774549828
13	34994	65	3.6672263871303
13	36035	66	1.8028956381726
13	37114	67	2.9834132787789
13	38195	68	0.973
13	39276	69	3.3330168151278
13	40395	70	0.973
13	41516	71	3.8621601955268
13	42656	72	1.0627722183775
13	43816	73	2.105263518146
13	44997	74	2.5481418798799
13	46197	75	3.1712831617698
13	47398	76	0.973
13	48618	77	3.9111376285952
13	49858	78	1.9165857361462
13	51099	79	2.7911225355888
13	52378	80	1.8320546820412
13	53659	81	0.973
13	54940	82	2.1056472873186
13	56259	83	5.5220890768048
13	57580	84	2.1193989436585
13	58939	85	1.8820656006421
13	74200	86	0.973
13	96330	87	3.0718197169222
13	124153	88	1.4990013803787
13	132559	89	3.5015891648645
13	143303	90	2.0141835735374
13	146661	91	0.973
13	150648	92	0.973
13	152481	93	2.233756214861
13	153901	94	5.0948095933046
13	155322	95	5.9223863161117
13	156743	96	8.2724907154639
13	158164	97	5.6117461045943
13	159586	98	3.3707903962971
13	161007	99	2.2364936350284
13	162428	100	4.9948475666068
13	163849	101	1.2429086312242
13	165270	102	1.9695734348702
13	166691	103	0.973
13	168112	104	4.2269277941346
13	169533	105	3.6913553836969
13	170954	106	0.973
13	172375	107	6.4953960985206
13	173796	108	0.973
13	175217	109	4.8041231958129
13	176638	110	1.6071649172659
13	178060	111	2.8149175785614
13	179481	112	0.973
13	180902	113	1.7316379763104
13	182323	114	2.9008349471092
13	183744	115	1.1058902737949
13	185165	116	2.8222172691083
13	186586	117	0.973
13	188007	118	3.5380465013971
13	189428	119	1.412308266867
13	190849	120	4.6913832707743
12	141	3	2.045571109117
12	240	4	1.4409547501011
12	341	5	2.2296804808313
12	461	6	2.2113307103515
12	601	7	1.3476690129843
12	742	8	1.4758764983155
12	921	9	1.6288404532243
12	1102	10	0.1961127044633
12	1302	11	-0.31401656202506
12	1522	12	0.090674749412575
12	1743	13	-0.00034300375264174
12	2002	14	1.0364330671029
12	2263	15	-0.24004845684394
12	2543	16	-0.52994646581356
12	2843	17	-0.864171496931
12	3144	18	-4.5
12	3464	19	-4.4965737238759
12	3804	20	2.1277886533644
12	4164	21	2.3656493975548
12	4525	22	1.3205505888676
12	4924	23	2.475277706515
12	5325	24	1.9419912328138
12	5745	25	0.1072352380259
12	6185	26	-0.55854384021368
12	6626	27	0.82140220445581
12	7086	28	-0.97571109118871
12	7566	29	0.66321087281685
12	8047	30	-0.50795226907358
12	8547	31	0.83366464392748
12	9067	32	0.036643777950667
12	9588	33	-0.46031292839907
12	10147	34	-0.1786376400385
12	10708	35	0.26118318298832
12	11288	36	-0.13873934103176
12	11888	37	-0.30721754173283
12	12489	38	0.76523482063785
12	13128	39	-0.57099105361849
12	13769	40	0.067047476908192
12	14429	41	-0.50556534042116
12	15109	42	0.32316650568973
12	15790	43	0.085831016348674
12	16509	44	-0.19733900704887
12	17230	45	-1.455842858391
12	17951	46	-3.8536958388519
12	18710	47	-3.3744680715259
12	19471	48	2.312641028408
12	20270	49	1.7215491539333
12	21071	50	1.8813314346597
12	21891	51	2.4809766275575
12	22731	52	0.10044131639983
12	23572	53	-0.57464664137728
12	24451	54	-3.9374147676087
12	25332	55	-4.3736546673113
12	26213	56	2.5836772234179
12	27132	57	1.5889868666884
12	28053	58	1.3519775079098
12	29012	59	2.2172360560158
12	29973	60	1.291366220973
12	30934	61	0.49663096896838
12	31933	62	-0.056638567941263
12	32934	63	-0.5539619022049
12	33954	64	0.21899665528908
12	34994	65	0.38766343914904
12	36035	66	-0.1062216852326
12	37114	67	0.20141485559289
12	38195	68	-0.3740668901708
12	39276	69	0.29773242918309
12	40395	70	-0.86373946338426
12	41516	71	0.46251390720717
12	42656	72	-0.29844427828211
12	43816	73	-0.0079400666756566
12	44997	74	0.11119513537269
12	46197	75	0.27028325439897
12	47398	76	-0.38040966631379
12	48618	77	0.46600257714745
12	49858	78	-0.070908038364722
12	51099	79	0.1598093097331
12	52378	80	-0.095424757362343
12	53659	81	-0.60637195322197
12	54940	82	-0.0033327807439498
12	56259	83	0.8780589689035
12	57580	84	-0.024921574769541
12	58939	85	-0.0858932309784
12	74200	86	-0.51929155290127
12	96330	87	0.24502377028111
12	124153	88	-0.17989625483751
12	132559	89	0.35271583783906
12	143303	90	-0.046474669221787
12	146661	91	-2.2332454615103
12	150648	92	-4.3219768224284
12	152481	93	0.28109198436141
12	153901	94	1.3428612101357
12	155322	95	1.4291921088938
12	156743	96	1.8885980707826
12	158164	97	0.98425113775931
12	159586	98	0.33522886713035
12	161007	99	0.022213321202434
12	162428	100	0.72314404691569
12	163849	101	-0.25750897000544
12	165270	102	-0.062055335985496
12	166691	103	-0.44619931296911
12	168112	104	0.53646867389325
12	169533	105	0.37330603508744
12	170954	106	-1.1986621589633
12	172375	107	1.111104469467
12	173796	108	-0.63712000951637
12	175217	109	0.66680988590233
12	176638	110	-0.1640321807703
12	178060	111	0.14839415072929
12	179481	112	-0.35743090321775
12	180902	113	-0.12370274672285
12	182323	114	0.18336193412542
12	183744	115	-0.29098558817059
12	185165	116	0.16754292363767
12	186586	117	-0.44978474965319
12	188007	118	0.36423566595186
12	189428	119	-0.20575855157804
12	190849	120	0.64342872297857
5	80	2	2.5772626519203
5	141	3	4.6228337610373
5	240	4	6.0637885111384
5	341	5	8.2934689919697
5	461	6	10.504799702321
5	601	7	11.852468715305
5	742	8	13.328345213621
5	921	9	14.957185666845
5	1102	10	15.153298371308
5	1302	11	14.839281809283
5	1522	12	14.929956558696
5	1743	13	14.929613554943
5	2002	14	15.966046622046
5	2263	15	15.725998165202
5	2543	16	15.196051699389
5	2843	17	14.331880202458
5	3144	18	9.8318802024578
5	3464	19	5.3353064785819
5	3804	20	7.4630951319463
5	4164	21	9.8287445295011
5	4525	22	11.149295118369
5	4924	23	13.624572824884
5	5325	24	15.566564057698
5	5745	25	15.673799295723
5	6185	26	15.11525545551
5	6626	27	15.936657659966
5	7086	28	14.960946568777
5	7566	29	15.624157441594
5	8047	30	15.11620517252
5	8547	31	15.949869816448
5	9067	32	15.986513594398
5	9588	33	15.526200665999
5	10147	34	15.347563025961
5	10708	35	15.608746208949
5	11288	36	15.470006867917
5	11888	37	15.162789326184
5	12489	38	15.928024146822
5	13128	39	15.357033093204
5	13769	40	15.424080570112
5	14429	41	14.918515229691
5	15109	42	15.241681735381
5	15790	43	15.327512751729
5	16509	44	15.13017374468
5	17230	45	13.674330886289
5	17951	46	9.8206350474375
5	18710	47	6.4461669759116
5	19471	48	8.7588080043196
5	20270	49	10.480357158253
5	21071	50	12.361688592913
5	21891	51	14.84266522047
5	22731	52	14.94310653687
5	23572	53	14.368459895493
5	24451	54	10.431045127884
5	25332	55	6.0573904605726
5	26213	56	8.6410676839905
5	27132	57	10.230054550679
5	28053	58	11.582032058589
5	29012	59	13.799268114604
5	29973	60	15.090634335577
5	30934	61	15.587265304546
5	31933	62	15.530626736605
5	32934	63	14.9766648344
5	33954	64	15.195661489689
5	34994	65	15.583324928838
5	36035	66	15.477103243605
5	37114	67	15.678518099198
5	38195	68	15.304451209027
5	39276	69	15.60218363821
5	40395	70	14.738444174826
5	41516	71	15.200958082033
5	42656	72	14.902513803751
5	43816	73	14.894573737076
5	44997	74	15.005768872448
5	46197	75	15.276052126847
5	47398	76	14.895642460533
5	48618	77	15.361645037681
5	49858	78	15.290736999316
5	51099	79	15.450546309049
5	52378	80	15.355121551687
5	53659	81	14.748749598465
5	54940	82	14.745416817721
5	56259	83	15.623475786624
5	57580	84	15.598554211855
5	58939	85	15.512660980877
5	74200	86	14.993369427975
5	96330	87	15.238393198256
5	124153	88	15.058496943419
5	132559	89	15.411212781258
5	143303	90	15.364738112036
5	146661	91	13.131492650526
5	150648	92	8.8095158280975
5	152481	93	9.0906078124589
5	153901	94	10.433469022595
5	155322	95	11.862661131488
5	156743	96	13.751259202271
5	158164	97	14.73551034003
5	159586	98	15.070739207161
5	161007	99	15.092952528363
5	162428	100	15.816096575279
5	163849	101	15.558587605273
5	165270	102	15.496532269288
5	166691	103	15.050332956319
5	168112	104	15.586801630212
5	169533	105	15.960107665299
5	170954	106	14.761445506336
5	172375	107	15.872549975803
5	173796	108	15.235429966287
5	175217	109	15.902239852189
5	176638	110	15.738207671419
5	178060	111	15.886601822148
5	179481	112	15.52917091893
5	180902	113	15.405468172207
5	182323	114	15.588830106333
5	183744	115	15.297844518162
5	185165	116	15.4653874418
5	186586	117	15.015602692147
5	188007	118	15.379838358099
5	189428	119	15.174079806521
5	190849	120	15.817508529499
3	21	1	916.51891571645
3	80	2	916.51891571645
3	141	3	918.47061300137
3	240	4	921.8763280193
3	341	5	926.26255401741
3	461	6	932.26161372082
3	601	7	939.8602338697
3	742	8	948.43368697174
3	921	9	958.07471158538
3	1102	10	970.27217770217
3	1302	11	984.57665842483
3	1522	12	998.95613316112
3	1743	13	1013.7948051396
3	2002	14	1028.6331362116
3	2263	15	1044.5015634027
3	2543	16	1060.1317543534
3	2843	17	1075.2092595343
3	3144	18	1089.2980969161
3	3464	19	1098.945946605
3	3804	20	1104.0829962401
3	4164	21	1111.2995195704
3	4525	22	1120.5552075005
3	4924	23	1130.9588753832
3	5325	24	1143.5840837234
3	5745	25	1158.4164150915
3	6185	26	1173.2539655169
3	6626	27	1185.4526155958
3	7086	28	1196.9740496074
3	7566	29	1204.9139442036
3	8047	30	1208.419275102
3	8547	31	1211.9639479607
3	9067	32	1216.2067120776
3	9588	33	1220.2899288199
3	10147	34	1223.9239638365
3	10708	35	1227.648047886
3	11288	36	1232.0726429453
3	11888	37	1236.5532417087
3	12489	38	1240.9448606448
3	13128	39	1244.7621487201
3	13769	40	1248.3503220078
3	14429	41	1251.9541609493
3	15109	42	1255.4398744666
3	15790	43	1259.4727967581
3	16509	44	1264.6023241847
3	17230	45	1269.6658098558
3	17951	46	1273.9229379185
3	18710	47	1276.9065599965
3	19471	48	1278.8649797947
3	20270	49	1281.5050741398
3	21071	50	1284.6421114794
3	21891	51	1288.4045467781
3	22731	52	1292.9386783098
3	23572	53	1297.5034926152
3	24451	54	1301.9167990262
3	25332	55	1305.1396924758
3	26213	56	1307.0112522091
3	27132	57	1309.7076610753
3	28053	58	1312.9196400524
3	29012	59	1316.592326967
3	29973	60	1320.9681041345
3	30934	61	1325.7533762678
3	31933	62	1330.696131134
3	32934	63	1335.5757937534
3	33954	64	1340.3488601514
3	34994	65	1345.1917208319
3	36035	66	1350.1581299363
3	37114	67	1355.0906861662
3	38195	68	1360.087433355
3	39276	69	1365.0893717784
3	40395	70	1370.6020703659
3	41516	71	1375.809585049
3	42656	72	1381.1918107626
3	43816	73	1386.8523009713
3	44997	74	1392.9137766826
3	46197	75	1400.3439043112
3	47398	76	1408.06878574
3	48618	77	1415.5017040514
3	49858	78	1423.1671574212
3	51099	79	1430.8114963611
3	52378	80	1438.595657313
3	53659	81	1446.3369001466
3	54940	82	1453.7724422067
3	56259	83	1461.1000709419
3	57580	84	1468.158093055
3	58939	85	1474.6506126045
3	74200	86	1477.4780942495
3	96330	87	1482.7411370308
3	124153	88	1486.6472487654
3	132559	89	1489.5568945349
3	143303	90	1495.4373310435
3	146661	91	1501.8539071374
3	150648	92	1508.1474176214
3	152481	93	1513.5879166389
3	153901	94	1520.9532655058
3	155322	95	1526.4847895991
3	156743	96	1533.2342756251
3	158164	97	1541.885175955
3	159586	98	1551.5928850543
3	161007	99	1561.5214419049
3	162428	100	1569.5925356599
3	163849	101	1576.6668448177
3	165270	102	1586.9029741816
3	166691	103	1594.4179760625
3	168112	104	1601.7165947799
3	169533	105	1609.1970319749
3	170954	106	1616.2804751675
3	172375	107	1622.2805895154
3	173796	108	1627.8845437518
3	175217	109	1632.8982858734
3	176638	110	1637.7943492034
3	178060	111	1642.6399094626
3	179481	112	1646.9805674247
3	180902	113	1650.2258184001
3	182323	114	1652.980322751
3	183744	115	1655.7676122948
3	185165	116	1658.2880288443
3	186586	117	1660.6503153798
3	188007	118	1662.9133018088
3	189428	119	1664.3399476973
3	190849	120	1664.9782444104
2	21	1	1593.3739804024
2	80	2	1593.3739804024
2	141	3	1591.6432299799
2	240	4	1588.4367752649
2	341	5	1584.1438514093
2	461	6	1578.2724014378
2	601	7	1570.8354162664
2	742	8	1562.4443344201
2	921	9	1553.0083900402
2	1102	10	1544.2581665735
2	1302	11	1540.9992183105
2	1522	12	1541.9586414031
2	1743	13	1543.1355249624
2	2002	14	1544.3123814837
2	2263	15	1545.5709369056
2	2543	16	1546.8062071033
2	2843	17	1548.2922281726
2	3144	18	1549.3198678349
2	3464	19	1549.5867757553
2	3804	20	1548.5578185242
2	4164	21	1547.3199321166
2	4525	22	1544.6271622556
2	4924	23	1540.4910453827
2	5325	24	1535.2200558541
2	5745	25	1530.4806499576
2	6185	26	1526.9000579773
2	6626	27	1518.7930394742
2	7086	28	1508.1717203467
2	7566	29	1495.9921049269
2	8047	30	1481.0237270204
2	8547	31	1466.4801447421
2	9067	32	1451.1506057309
2	9588	33	1435.7440382938
2	10147	34	1420.6948026099
2	10708	35	1405.7970438982
2	11288	36	1390.8858033826
2	11888	37	1376.2320710706
2	12489	38	1361.8693459738
2	13128	39	1346.3703974843
2	13769	40	1331.3793711381
2	14429	41	1316.3228952688
2	15109	42	1301.7599355163
2	15790	43	1287.0272545307
2	16509	44	1272.5434140736
2	17230	45	1258.2460504926
2	17951	46	1245.2171672171
2	18710	47	1235.835296226
2	19471	48	1229.6771296041
2	20270	49	1221.3201769581
2	21071	50	1211.3211035181
2	21891	51	1199.5417718291
2	22731	52	1185.4035816366
2	23572	53	1171.1697173576
2	24451	54	1157.4909820266
2	25332	55	1147.5667781563
2	26213	56	1141.8037144252
2	27132	57	1133.5924332692
2	28053	58	1123.8757549296
2	29012	59	1112.8789013019
2	29973	60	1099.7768367541
2	30934	61	1085.4486518468
2	31933	62	1070.64892809
2	32934	63	1055.888027172
2	33954	64	1041.6760693591
2	34994	65	1027.2562968385
2	36035	66	1012.4686549355
2	37114	67	997.78181104897
2	38195	68	982.90383652944
2	39276	69	968.42516905696
2	40395	70	953.81219348681
2	41516	71	940.008194658
2	42656	72	925.77545043606
2	43816	73	911.97325391984
2	44997	74	898.3562431401
2	46197	75	885.31502791039
2	47398	76	872.11849500711
2	48618	77	859.19222992839
2	49858	78	845.86157323946
2	51099	79	832.59704644094
2	52378	80	819.21392531956
2	53659	81	805.91521620961
2	54940	82	793.1416715662
2	56259	83	780.3131323174
2	57580	84	766.33860878114
2	58939	85	752.11901398105
2	74200	86	737.54081365483
2	96330	87	723.47039771918
2	124153	88	708.72950113324
2	132559	89	693.94447548326
2	143303	90	679.66750721207
2	146661	91	665.68691310565
2	150648	92	654.13598389777
2	152481	93	648.59126437548
2	153901	94	644.68100616464
2	155322	95	635.6985212027
2	156743	96	625.80081697175
2	158164	97	614.92397403476
2	159586	98	603.62203704825
2	161007	99	592.06298405794
2	162428	100	579.25610687725
2	163849	101	564.91106594462
2	165270	102	552.69387602208
2	166691	103	539.10144993962
2	168112	104	525.90039729956
2	169533	105	512.1874604919
2	170954	106	497.84751078689
2	172375	107	484.32559011568
2	173796	108	469.56370198728
2	175217	109	455.13735618411
2	176638	110	440.06348068011
2	178060	111	425.14509274858
2	179481	112	409.93041106921
2	180902	113	394.80347409948
2	182323	114	379.69861056658
2	183744	115	364.41396301406
2	185165	116	349.37603337203
2	186586	117	334.08759215061
2	188007	118	319.23912278534
2	189428	119	303.94331160482
2	190849	120	288.77826211176
21	341	5	2.8122699009343
21	461	6	5.0862690851066
21	601	7	5.9487778483656
21	742	8	6.6279386244935
21	921	9	7.4218667348133
21	1102	10	10.782576469163
21	1302	11	3.5304986782672
21	1522	12	1.9949490568056
21	1743	13	1.2780606902575
21	2002	14	6.2063643817888
21	2263	15	0.973
21	2543	16	0.973
21	2843	17	3.080559401636
21	3144	18	2.9687927294568
21	3464	19	0.973
21	3804	20	0.973
21	4164	21	0.973
21	4525	22	3.9588700603744
21	4924	23	7.4558761884087
21	5325	24	9.3619084687945
21	5745	25	8.2740089653658
21	6185	26	7.6268918402264
21	6626	27	1.5030492633575
21	7086	28	0.973
21	7566	29	5.1262573880891
21	8047	30	0.973
21	8547	31	3.2483201915981
21	9067	32	0.973
21	9588	33	3.5057211968057
21	10147	34	0.973
21	10708	35	4.5259403863064
21	11288	36	3.6482665740827
21	11888	37	0.973
21	12489	38	1.2955497700695
21	13128	39	5.0475964186837
21	13769	40	0.973
21	14429	41	3.5797861249532
21	15109	42	3.5727646894952
21	15790	43	3.2549616337753
21	16509	44	0.973
21	17230	45	4.8201272221351
21	17951	46	0.973
21	18710	47	0.973
21	19471	48	0.973
21	20270	49	0.973
21	21071	50	7.7813593700765
21	21891	51	8.3760092740096
21	22731	52	7.2742883080127
21	23572	53	5.4669018117826
21	24451	54	4.1225894202538
21	25332	55	0.973
21	26213	56	0.973
21	27132	57	0.973
21	28053	58	5.3115676218828
21	29012	59	6.1640646446873
21	29973	60	9.6999085790186
21	30934	61	10.557994920142
21	31933	62	3.1692897105362
21	32934	63	0.973
21	33954	64	6.5019465917396
21	34994	65	2.8387898929067
21	36035	66	0.973
21	37114	67	5.283044972632
21	38195	68	0.973
21	39276	69	2.0803404553236
21	40395	70	3.2678565355456
21	41516	71	0.973
21	42656	72	2.1087653477116
21	43816	73	5.1423168832974
21	44997	74	0.973
21	46197	75	2.2227892360561
21	47398	76	0.973
21	48618	77	6.3188307084651
21	49858	78	0.973
21	51099	79	2.3003652795876
21	52378	80	1.5141583696846
21	53659	81	5.1364354640548
21	54940	82	0.973
21	56259	83	4.0287061554492
21	57580	84	0.973
21	58939	85	4.6673279564781
21	74200	86	2.886654808878
21	96330	87	2.7507073896479
21	124153	88	0.973
21	132559	89	0.973
21	143303	90	4.9808799148514
21	146661	91	1.1575374129399
21	150648	92	0.973
21	152481	93	0.973
21	153901	94	0.973
21	155322	95	5.0452279976184
21	156743	96	5.4379042012605
21	158164	97	4.2853869714803
21	159586	98	7.3016946207183
21	161007	99	3.6084125600692
21	162428	100	0.973
21	163849	101	8.0986485258704
21	165270	102	1.0100080392947
21	166691	103	0.973
21	168112	104	3.8784070292696
21	169533	105	0.973
21	170954	106	2.4146511232
21	172375	107	2.3498220681958
21	173796	108	5.380674825108
21	175217	109	2.6301665320116
21	176638	110	0.973
21	178060	111	1.2297420099525
21	179481	112	3.8120062458348
21	180902	113	0.973
21	182323	114	3.7465895963054
21	183744	115	1.2218460978508
21	185165	116	4.3697746003396
21	186586	117	0.973
21	188007	118	2.8094158142036
21	189428	119	4.62866072382
21	190849	120	0.973
21	192270	121	2.5258097036265
21	193671	122	4.3752430495737
20	341	5	1.6980901245028
20	461	6	2.4593247350771
20	601	7	2.178188218642
20	742	8	1.9765617014607
20	921	9	1.8873011167394
20	1102	10	2.4539943669923
20	1302	11	0.38054995950155
20	1522	12	-0.041746971802786
20	1743	13	-0.23654850299936
20	2002	14	1.0415893885307
20	2263	15	-0.3567601544084
20	2543	16	-0.529308492993
20	2843	17	0.25042078816332
20	3144	18	0.21044062939472
20	3464	19	-3.7143797033497
20	3804	20	-0.92492528118433
20	4164	21	-4.5
20	4525	22	1.3368473113747
20	4924	23	2.3995883058989
20	5325	24	2.4864454656141
20	5745	25	1.8044763513375
20	6185	26	1.4276640661162
20	6626	27	-0.18728192404378
20	7086	28	-0.5486037308583
20	7566	29	0.7645071813371
20	8047	30	-0.64155317402911
20	8547	31	0.28636649530381
20	9067	32	-0.32347325989976
20	9588	33	0.35418720568996
20	10147	34	-0.40724540501833
20	10708	35	0.61432733004913
20	11288	36	0.36141197544057
20	11888	37	-0.61600461220369
20	12489	38	-0.23687897399068
20	13128	39	0.73403916170355
20	13769	40	-0.87927338609006
20	14429	41	0.37703622325789
20	15109	42	0.35582347412128
20	15790	43	0.25951238998678
20	16509	44	-0.88924715949688
20	17230	45	0.6814853816526
20	17951	46	-0.77569832548033
20	18710	47	-3.2373547112217
20	19471	48	-2.9935395833067
20	20270	49	-1.0098474054602
20	21071	50	2.4702338451752
20	21891	51	2.1747559851734
20	22731	52	1.5591775249923
20	23572	53	0.93015329328702
20	24451	54	0.52075857290607
20	25332	55	-4.3266597232316
20	26213	56	-3.0175361617468
20	27132	57	-1.4823174962363
20	28053	58	1.8442333914805
20	29012	59	1.810456270352
20	29973	60	2.5312889968278
20	30934	61	2.3139125195099
20	31933	62	0.2667424787256
20	32934	63	-0.63366687903181
20	33954	64	1.1178844869137
20	34994	65	0.15110760100652
20	36035	66	-1.1437848038739
20	37114	67	0.81297250047792
20	38195	68	-0.34811518301722
20	39276	69	-0.025836421246641
20	40395	70	0.28286870894954
20	41516	71	-0.76702305795625
20	42656	72	-0.0035389943979691
20	43816	73	0.78206443309318
20	44997	74	-0.37489441835787
20	46197	75	0.014945089048705
20	47398	76	-0.39492115771864
20	48618	77	1.0648815880995
20	49858	78	-0.57976761446334
20	51099	79	0.032094318093733
20	52378	80	-0.17741649670061
20	53659	81	0.75356318284758
20	54940	82	-0.64498138125055
20	56259	83	0.47481456333771
20	57580	84	-0.84283212304581
20	58939	85	0.65672308155336
20	74200	86	0.17408814658411
20	96330	87	0.13296138362493
20	124153	88	-0.54893966068048
20	132559	89	-0.37921849493869
20	143303	90	0.73178831033874
20	146661	91	-0.27798792151734
20	150648	92	-1.1859091831517
20	152481	93	-3.9533123196801
20	153901	94	-0.42200811100126
20	155322	95	1.231040999001
20	156743	96	1.2075724883695
20	158164	97	0.74825380035237
20	159586	98	1.4916906641726
20	161007	99	0.41017077129383
20	162428	100	-0.42883718455872
20	163849	101	1.5151315152493
20	165270	102	-0.32077773523051
20	166691	103	-0.56138461972587
20	168112	104	0.44555740625341
20	169533	105	-0.62365691059943
20	170954	106	0.074277198198251
20	172375	107	0.054482781982914
20	173796	108	0.81912090438145
20	175217	109	0.096813568077049
20	176638	110	-0.62210165802389
20	178060	111	-0.25465547249187
20	179481	112	0.42938127499074
20	180902	113	-0.42737820248585
20	182323	114	0.41274064432364
20	183744	115	-0.25895187081769
20	185165	116	0.55925287499558
20	186586	117	-0.89640434870962
20	188007	118	0.17951861694455
20	189428	119	0.63310815747827
20	190849	120	-0.45445468970574
20	192270	121	0.091576014948076
20	193671	122	0.55363019385841
15	240	4	2.0125663528328
15	341	5	3.7106564773355
15	461	6	6.1699812124126
15	601	7	8.3481694310547
15	742	8	10.324731132515
15	921	9	12.212032249255
15	1102	10	14.666026616247
15	1302	11	15.046576575749
15	1522	12	15.004829603946
15	1743	13	14.768281100946
15	2002	14	15.809870489477
15	2263	15	15.453110335069
15	2543	16	14.923801842076
15	2843	17	15.174222630239
15	3144	18	15.384663259634
15	3464	19	11.670283556284
15	3804	20	10.7453582751
15	4164	21	6.2453582750998
15	4525	22	7.5822055864745
15	4924	23	9.9817938923735
15	5325	24	12.468239357988
15	5745	25	14.272715709325
15	6185	26	15.700379775441
15	6626	27	15.513097851397
15	7086	28	14.964494120539
15	7566	29	15.729001301876
15	8047	30	15.087448127847
15	8547	31	15.373814623151
15	9067	32	15.050341363251
15	9588	33	15.404528568941
15	10147	34	14.997283163923
15	10708	35	15.611610493972
15	11288	36	15.973022469413
15	11888	37	15.357017857209
15	12489	38	15.120138883218
15	13128	39	15.854178044922
15	13769	40	14.974904658832
15	14429	41	15.35194088209
15	15109	42	15.707764356211
15	15790	43	15.967276746198
15	16509	44	15.078029586701
15	17230	45	15.759514968353
15	17951	46	14.983816642873
15	18710	47	11.746461931651
15	19471	48	8.7529223483446
15	20270	49	7.7430749428844
15	21071	50	10.21330878806
15	21891	51	12.388064773233
15	22731	52	13.947242298225
15	23572	53	14.877395591512
15	24451	54	15.398154164418
15	25332	55	11.071494441187
15	26213	56	8.05395827944
15	27132	57	6.5716407832037
15	28053	58	8.4158741746842
15	29012	59	10.226330445036
15	29973	60	12.757619441864
15	30934	61	15.071531961374
15	31933	62	15.338274440099
15	32934	63	14.704607561068
15	33954	64	15.822492047981
15	34994	65	15.973599648988
15	36035	66	14.829814845114
15	37114	67	15.642787345592
15	38195	68	15.294672162575
15	39276	69	15.268835741328
15	40395	70	15.551704450278
15	41516	71	14.784681392321
15	42656	72	14.781142397923
15	43816	73	15.563206831017
15	44997	74	15.188312412659
15	46197	75	15.203257501707
15	47398	76	14.808336343989
15	48618	77	15.873217932088
15	49858	78	15.293450317625
15	51099	79	15.325544635719
15	52378	80	15.148128139018
15	53659	81	15.901691321866
15	54940	82	15.256709940615
15	56259	83	15.731524503953
15	57580	84	14.888692380907
15	58939	85	15.54541546246
15	74200	86	15.719503609044
15	96330	87	15.852464992669
15	124153	88	15.303525331989
15	132559	89	14.92430683705
15	143303	90	15.656095147389
15	146661	91	15.378107225872
15	150648	92	14.19219804272
15	152481	93	10.23888572304
15	153901	94	9.8168776120386
15	155322	95	11.04791861104
15	156743	96	12.255491099409
15	158164	97	13.003744899761
15	159586	98	14.495435563934
15	161007	99	14.905606335228
15	162428	100	14.476769150669
15	163849	101	15.991900665918
15	165270	102	15.671122930688
15	166691	103	15.109738310962
15	168112	104	15.555295717215
15	169533	105	14.931638806616
15	170954	106	15.005916004814
15	172375	107	15.060398786797
15	173796	108	15.879519691179
15	175217	109	15.976333259256
15	176638	110	15.354231601232
15	178060	111	15.09957612874
15	179481	112	15.528957403731
15	180902	113	15.101579201245
15	182323	114	15.514319845568
15	183744	115	15.255367974751
15	185165	116	15.814620849746
15	186586	117	14.918216501037
15	188007	118	15.097735117981
15	189428	119	15.730843275459
15	190849	120	15.276388585754
15	192270	121	15.367964600702
15	193671	122	15.92159479456
9	141	3	916.51891571645
9	240	4	916.51891571645
9	341	5	918.04298245587
9	461	6	920.80803526917
9	601	7	925.27107548768
9	742	8	931.30970261458
9	921	9	938.77807062145
9	1102	10	947.61161309133
9	1302	11	958.22024614557
9	1522	12	970.52862107323
9	1743	13	984.70471908078
9	2002	14	999.02681569368
9	2263	15	1014.7400216427
9	2543	16	1030.0986487364
9	2843	17	1044.9312036294
9	3144	18	1060.0129862224
9	3464	19	1075.277839253
9	3804	20	1086.7042562021
9	4164	21	1097.6346823297
9	4525	22	1103.8949740751
9	4924	23	1111.5015620057
9	5325	24	1121.2566392323
9	5745	25	1132.7912782706
9	6185	26	1145.9000165439
9	6626	27	1160.9021221324
9	7086	28	1176.2335134077
9	7566	29	1188.6015284244
9	8047	30	1200.2587336059
9	8547	31	1208.0981067273
9	9067	32	1211.6601125357
9	9588	33	1215.2653290054
9	10147	34	1219.3845903777
9	10708	35	1223.2311350742
9	11288	36	1226.8959683812
9	11888	37	1230.7539965163
9	12489	38	1235.1406209728
9	13128	39	1236.3997348548
9	13769	40	1240.9916016296
9	14429	41	1244.5771588852
9	15109	42	1248.1641423769
9	15790	43	1251.8342640814
9	16509	44	1255.5650208981
9	17230	45	1259.5972782359
9	17951	46	1264.8713801446
9	18710	47	1269.8858857379
9	19471	48	1273.5370178637
9	20270	49	1276.1962565218
9	21071	50	1278.548691903
9	21891	51	1281.6292325279
9	22731	52	1285.337364631
9	23572	53	1289.5979627206
9	24451	54	1294.1427036723
9	25332	55	1298.846525748
9	26213	56	1302.2565155828
9	27132	57	1304.7449574469
9	28053	58	1306.7754057647
9	29012	59	1309.3983184521
9	29973	60	1312.6049968556
9	30934	61	1316.6504650212
9	31933	62	1321.4296797511
9	32934	63	1326.2934790865
9	33954	64	1330.9563413114
9	34994	65	1335.9303328531
9	36035	66	1341.0211225972
9	37114	67	1345.7473878712
9	38195	68	1350.732747661
9	39276	69	1355.6071630649
9	40395	70	1360.4733443956
9	41516	71	1365.6045757148
9	42656	72	1370.8284273319
9	43816	73	1376.0510285208
9	44997	74	1381.588961393
9	46197	75	1387.358007799
9	47398	76	1393.6132344501
9	48618	77	1401.0841254522
9	49858	78	1409.0866469517
9	51099	79	1416.7180711894
9	52378	80	1424.3655104763
9	53659	81	1431.9451259684
9	54940	82	1439.9619204675
9	56259	83	1447.6535493546
9	57580	84	1455.5845547146
9	58939	85	1462.7984273039
9	74200	86	1469.6813236121
9	96330	87	1476.1751169875
9	124153	88	1478.9244491919
9	132559	89	1484.1174598116
9	143303	90	1487.3892102594
9	146661	91	1491.3218851156
9	150648	92	1497.267350949
9	152481	93	1503.4851872249
9	153901	94	1508.4569264909
9	155322	95	1514.961434942
9	156743	96	1522.8515259383
9	158164	97	1529.3490335405
9	159586	98	1537.2332417718
9	161007	99	1546.6863230525
9	162428	100	1556.5060908726
9	163849	101	1565.9472440563
9	165270	102	1573.0312877467
9	166691	103	1583.0521347112
9	168112	104	1590.3795618965
9	169533	105	1597.9230609543
9	170954	106	1605.1641192613
9	172375	107	1612.1364390503
9	173796	108	1618.5868575814
9	175217	109	1624.6806278348
9	176638	110	1630.2179165777
9	178060	111	1635.0439788475
9	179481	112	1639.6929139453
9	180902	113	1644.4740491567
9	182323	114	1648.1903286623
9	183744	115	1651.1479542507
9	185165	116	1653.8756206215
9	186586	117	1656.6757505573
9	188007	118	1659.0293710064
9	189428	119	1661.3354998712
9	190849	120	1663.6877127522
9	192270	121	1664.5543757303
9	193671	122	1665.2040531796
8	141	3	1593.3739804024
8	240	4	1593.3739804024
8	341	5	1592.0224495203
8	461	6	1589.4823436952
8	601	7	1585.1142395823
8	742	8	1579.2040638506
8	921	9	1571.8945601468
8	1102	10	1563.2489214555
8	1302	11	1552.8659512362
8	1522	12	1544.1141484317
8	1743	13	1540.996056319
8	2002	14	1541.9642473704
8	2263	15	1543.2104918977
8	2543	16	1544.4286140952
8	2843	17	1545.6050124967
8	3144	18	1546.796869986
8	3464	19	1548.2989916989
8	3804	20	1552.4438602751
8	4164	21	1552.7758038018
8	4525	22	1551.8603760763
8	4924	23	1550.509768019
8	5325	24	1547.7840078751
8	5745	25	1543.2006226124
8	6185	26	1537.7197191868
8	6626	27	1533.1836365855
8	7086	28	1529.0784236839
8	7566	29	1520.2839859454
8	8047	30	1509.3675208729
8	8547	31	1496.4283102668
8	9067	32	1481.2172490679
8	9588	33	1466.4757686061
8	10147	34	1451.6453183555
8	10708	35	1437.1654851324
8	11288	36	1422.0042496685
8	11888	37	1406.561030834
8	12489	38	1391.7934499343
8	13128	39	1376.7341129768
8	13769	40	1361.7164802711
8	14429	41	1347.1432663696
8	15109	42	1332.157210871
8	15790	43	1316.8238122988
8	16509	44	1301.237086339
8	17230	45	1286.675766038
8	17951	46	1271.7837020626
8	18710	47	1257.6246396493
8	19471	48	1246.4306761911
8	20270	49	1238.0688148787
8	21071	50	1230.6716832434
8	21891	51	1220.9259420765
8	22731	52	1209.1057653413
8	23572	53	1195.8204987571
8	24451	54	1181.6492265955
8	25332	55	1166.9819125412
8	26213	56	1156.4448983077
8	27132	57	1148.7822793708
8	28053	58	1142.5299525813
8	29012	59	1134.5314599877
8	29973	60	1124.8178676826
8	30934	61	1112.7048228447
8	31933	62	1098.3947751703
8	32934	63	1083.8314620949
8	33954	64	1069.8698000839
8	34994	65	1054.8323756665
8	36035	66	1039.6743864318
8	37114	67	1025.6017804624
8	38195	68	1010.7577122877
8	39276	69	996.24398456934
8	40395	70	981.7547740671
8	41516	71	967.05947448526
8	42656	72	953.21216996634
8	43816	73	939.36818006285
8	44997	74	924.80706239084
8	46197	75	910.74016901768
8	47398	76	896.87094039086
8	48618	77	884.07504443091
8	49858	78	870.3483768269
8	51099	79	857.07689872196
8	52378	80	843.77756954149
8	53659	81	830.63889721088
8	54940	82	816.86681689657
8	56259	83	803.65333976504
8	57580	84	790.02863692371
8	58939	85	776.97467456091
8	74200	86	763.00250464717
8	96330	87	748.65344544475
8	124153	88	733.67407411365
8	132559	89	719.2574566545
8	143303	90	704.67233341288
8	146661	91	689.56343037069
8	150648	92	675.34922768305
8	152481	93	662.57311746692
8	153901	94	653.60223901061
8	155322	95	648.19663678177
8	156743	96	641.5984749307
8	158164	97	631.04735676825
8	159586	98	620.53007858324
8	161007	99	609.33436876295
8	162428	100	597.90197045036
8	163849	101	586.73530601747
8	165270	102	572.2006736094
8	166691	103	559.65891098623
8	168112	104	546.40575230865
8	169533	105	532.76178322234
8	170954	106	519.66484041977
8	172375	107	506.34195406988
8	173796	108	492.69933575585
8	175217	109	478.00406061364
8	176638	110	463.09343514036
8	178060	111	448.53125111949
8	179481	112	434.21822774395
8	180902	113	419.49819001426
8	182323	114	404.91946974982
8	183744	115	389.74676174507
8	185165	116	374.7890695265
8	186586	117	359.28188982836
8	188007	118	344.57815390265
8	189428	119	329.65315853499
8	190849	120	314.0945778397
8	192270	121	298.84879730539
8	193671	122	283.49011951258
26	601	7	2.49970770846
26	742	8	3.5454596383812
26	921	9	4.6295892761884
26	1102	10	4.367965600383
26	1302	11	6.5766284180664
26	1522	12	7.6591509996485
26	1743	13	6.8316397687457
26	2002	14	9.1975603061923
26	2263	15	2.4190711814427
26	2543	16	2.5844733902956
26	2843	17	0.973
26	3144	18	5.0779206426013
26	3464	19	2.3623156546929
26	3804	20	2.0540906212908
26	4164	21	1.5090680767075
26	4525	22	0.973
26	4924	23	0.973
26	5325	24	0.973
26	5745	25	3.3647570760445
26	6185	26	6.8177777060076
26	6626	27	8.7425727121414
26	7086	28	6.5769479848166
26	7566	29	8.0960254415907
26	8047	30	5.9312440290728
26	8547	31	4.0854284391081
26	9067	32	0.973
26	9588	33	5.6774095681714
26	10147	34	2.3295933290251
26	10708	35	0.973
26	11288	36	5.9587628755098
26	11888	37	0.973
26	12489	38	2.2013748627529
26	13128	39	4.7049559499071
26	13769	40	0.973
26	14429	41	1.0616280847165
26	15109	42	4.2614134233675
26	15790	43	2.9426190149473
26	16509	44	0.973
26	17230	45	5.1581689140814
26	17951	46	1.756372819565
26	18710	47	2.797732099837
26	19471	48	0.973
26	20270	49	4.8012577577841
26	21071	50	0.973
26	21891	51	0.973
26	22731	52	0.973
26	23572	53	5.8728473150248
26	24451	54	8.6629867319808
26	25332	55	9.5178838292314
26	26213	56	11.328238960623
26	27132	57	0.973
26	28053	58	0.973
26	29012	59	0.973
26	29973	60	0.973
26	30934	61	4.2439031763479
26	31933	62	6.8331683947801
26	32934	63	5.6446376243517
26	33954	64	9.0498664915042
26	34994	65	9.9803921410199
26	36035	66	0.973
26	37114	67	3.2468029532494
26	38195	68	0.973
26	39276	69	3.7097423835569
26	40395	70	0.973
26	41516	71	5.5015253328439
26	42656	72	0.973
26	43816	73	1.7623256398633
26	44997	74	3.9700450479973
26	46197	75	0.973
26	47398	76	5.4060294302523
26	48618	77	1.4844137458575
26	49858	78	2.218858946274
26	51099	79	2.914786164096
26	52378	80	2.2543028622489
26	53659	81	0.973
26	54940	82	2.5676661938264
26	56259	83	1.3858141476414
26	57580	84	6.3855240784246
26	58939	85	0.973
26	74200	86	1.4104754746642
26	96330	87	4.9740599427062
26	124153	88	0.973
26	132559	89	1.6193060315756
26	143303	90	1.9681280496079
26	146661	91	2.5871118554037
26	150648	92	3.2958480323619
26	152481	93	0.973
26	153901	94	5.1071896111967
26	155322	95	3.4855843047295
26	156743	96	0.973
26	158164	97	0.973
26	159586	98	0.973
26	161007	99	8.5658769180494
26	162428	100	10.040709917423
26	163849	101	4.9473788922569
26	165270	102	1.1751551528422
26	166691	103	4.4592413695434
26	168112	104	0.973
26	169533	105	5.0989847559761
26	170954	106	1.1772531534999
26	172375	107	3.6537338492038
26	173796	108	2.8122511563576
26	175217	109	0.973
26	176638	110	4.8036496133141
26	178060	111	1.4511370193973
26	179481	112	0.973
26	180902	113	1.3628277424456
26	182323	114	2.327117318457
26	183744	115	2.2198003886875
26	185165	116	6.0643403878223
26	186586	117	0.973
26	188007	118	6.1891881203213
26	189428	119	2.2321831830427
26	190849	120	0.973
26	192270	121	2.3435793584857
26	193671	122	3.2139031824541
26	195072	123	3.0932813139118
26	196455	124	1.0535635146422
26	197836	125	2.0579227145726
25	601	7	2.0847704734653
25	742	8	2.0182335835416
25	921	9	2.012448851252
25	1102	10	1.4621258274885
25	1302	11	2.0215531989234
25	1522	12	2.001868401817
25	1743	13	1.4854095157003
25	2002	14	1.8866237668454
25	2263	15	0.059270387887954
25	2543	16	0.09991202771198
25	2843	17	-0.37459695551079
25	3144	18	0.73611341572832
25	3464	19	0.027852044068277
25	3804	20	-0.050886398553848
25	4164	21	-0.18950528935529
25	4525	22	-3.2216179647527
25	4924	23	-3.1743493640703
25	5325	24	-4.5
25	5745	25	1.311040297593
25	6185	26	2.5112010973739
25	6626	27	2.5746821876615
25	7086	28	1.5186360970139
25	7566	29	1.724187891325
25	8047	30	1.0019161673215
25	8547	31	0.47697595253121
25	9067	32	-0.87733168797568
25	9588	33	0.8902642711997
25	10147	34	0.018890861235558
25	10708	35	-1.2089775513625
25	11288	36	0.98258566309232
25	11888	37	-0.39437646416482
25	12489	38	0.0043641877127811
25	13128	39	0.63469925760291
25	13769	40	-0.60605227912311
25	14429	41	-0.30068108772393
25	15109	42	0.5430426526349
25	15790	43	0.18493673645426
25	16509	44	-0.80012991789263
25	17230	45	0.76884584072977
25	17951	46	-0.1228396170307
25	18710	47	0.14719247454777
25	19471	48	-0.69659748368431
25	20270	49	0.6748077405151
25	21071	50	-2.3594861800293
25	21891	51	-2.2788523380337
25	22731	52	-4.5
25	23572	53	2.0452050217893
25	24451	54	2.5418741665548
25	25332	55	2.3065778597258
25	26213	56	2.3683958726138
25	27132	57	-0.6484371797168
25	28053	58	-3.1578200385754
25	29012	59	-2.0960148473561
25	29973	60	-4.5
25	30934	61	1.6086549210595
25	31933	62	2.2911964192521
25	32934	63	1.4827357839793
25	33954	64	2.2429834315786
25	34994	65	2.1236608204665
25	36035	66	-0.42501130754736
25	37114	67	0.29827002882957
25	38195	68	-0.36933514017146
25	39276	69	0.42216296594124
25	40395	70	-0.34111658623442
25	41516	71	0.86564906411804
25	42656	72	-0.39909690029454
25	43816	73	-0.11052067419514
25	44997	74	0.46375961906742
25	46197	75	-0.88199873410631
25	47398	76	0.84724184682127
25	48618	77	-0.19078937678132
25	49858	78	0.0064796891296286
25	51099	79	0.1855462431442
25	52378	80	0.0098350640153502
25	53659	81	-0.77212982797064
25	54940	82	0.11758641293272
25	56259	83	-0.20636103367433
25	57580	84	1.0838794336421
25	58939	85	-0.91805721309502
25	74200	86	-0.19887142269872
25	96330	87	0.74342222181149
25	124153	88	-0.50948269157671
25	132559	89	-0.14201722533908
25	143303	90	-0.043241306394339
25	146661	91	0.12550931281876
25	150648	92	0.30687963662203
25	152481	93	-0.37281566408928
25	153901	94	0.76837376854382
25	155322	95	0.32093196725473
25	156743	96	-1.3069729411302
25	158164	97	-4.5
25	159586	98	-0.43384150150232
25	161007	99	2.319083649246
25	162428	100	2.3081422952702
25	163849	101	0.76756727372092
25	165270	102	-0.26618577302434
25	166691	103	0.60890309580136
25	168112	104	-0.44796881531365
25	169533	105	0.75620721047744
25	170954	106	-0.2738515591016
25	172375	107	0.37004677043296
25	173796	108	0.14383689837996
25	175217	109	-0.85685028505977
25	176638	110	0.67414085299242
25	178060	111	-0.20267033008859
25	179481	112	-0.53411653859075
25	180902	113	-0.21404253004584
25	182323	114	0.053574090474285
25	183744	115	0.022956726793199
25	185165	116	0.99397888961248
25	186586	117	-0.96914186996874
25	188007	118	1.0215360151604
25	189428	119	-0.0062406843528144
25	190849	120	-1.1596048825188
25	192270	121	0.059437270113268
25	193671	122	0.28789181311149
25	195072	123	0.24342736538965
25	196455	124	-0.30301388087683
25	197836	125	-0.026163669000379
24	461	6	0.43621021959526
24	601	7	2.5209806930606
24	742	8	4.5392142766022
24	921	9	6.5516631278541
24	1102	10	8.0137889553426
24	1302	11	10.035342154266
24	1522	12	12.037210556083
24	1743	13	13.522620071783
24	2002	14	15.409243838629
24	2263	15	15.468514226517
24	2543	16	15.568426254229
24	2843	17	15.193829298718
24	3144	18	15.929942714446
24	3464	19	15.957794758515
24	3804	20	15.906908359961
24	4164	21	15.717403070605
24	4525	22	12.495785105853
24	4924	23	9.3214357417823
24	5325	24	4.8214357417823
24	5745	25	6.1324760393753
24	6185	26	8.6436771367492
24	6626	27	11.218359324411
24	7086	28	12.736995421425
24	7566	29	14.46118331275
24	8047	30	15.463099480071
24	8547	31	15.940075432602
24	9067	32	15.062743744627
24	9588	33	15.953008015826
24	10147	34	15.971898877062
24	10708	35	14.762921325699
24	11288	36	15.745506988792
24	11888	37	15.351130524627
24	12489	38	15.35549471234
24	13128	39	15.990193969943
24	13769	40	15.38414169082
24	14429	41	15.083460603096
24	15109	42	15.62650325573
24	15790	43	15.811439992185
24	16509	44	15.011310074292
24	17230	45	15.780155915022
24	17951	46	15.657316297991
24	18710	47	15.804508772539
24	19471	48	15.107911288855
24	20270	49	15.78271902937
24	21071	50	13.42323284934
24	21891	51	11.144380511307
24	22731	52	6.6443805113068
24	23572	53	8.6895855330961
24	24451	54	11.231459699651
24	25332	55	13.538037559377
24	26213	56	15.90643343199
24	27132	57	15.257996252274
24	28053	58	12.100176213698
24	29012	59	10.004161366342
24	29973	60	5.5041613663421
24	30934	61	7.1128162874016
24	31933	62	9.4040127066537
24	32934	63	10.886748490633
24	33954	64	13.129731922212
24	34994	65	15.253392742678
24	36035	66	14.828381435131
24	37114	67	15.12665146396
24	38195	68	14.757316323789
24	39276	69	15.17947928973
24	40395	70	14.838362703496
24	41516	71	15.704011767614
24	42656	72	15.304914867319
24	43816	73	15.194394193124
24	44997	74	15.658153812191
24	46197	75	14.776155078085
24	47398	76	15.623396924906
24	48618	77	15.432607548125
24	49858	78	15.439087237255
24	51099	79	15.624633480399
24	52378	80	15.634468544414
24	53659	81	14.862338716444
24	54940	82	14.979925129376
24	56259	83	14.773564095702
24	57580	84	15.857443529344
24	58939	85	14.939386316249
24	74200	86	14.74051489355
24	96330	87	15.483937115362
24	124153	88	14.974454423785
24	132559	89	14.832437198446
24	143303	90	14.789195892052
24	146661	91	14.914705204871
24	150648	92	15.221584841493
24	152481	93	14.848769177403
24	153901	94	15.617142945947
24	155322	95	15.938074913202
24	156743	96	14.631101972072
24	158164	97	10.131101972072
24	159586	98	9.6972604705693
24	161007	99	12.016344119815
24	162428	100	14.324486415086
24	163849	101	15.092053688806
24	165270	102	14.825867915782
24	166691	103	15.434771011584
24	168112	104	14.98680219627
24	169533	105	15.743009406747
24	170954	106	15.469157847646
24	172375	107	15.839204618079
24	173796	108	15.983041516459
24	175217	109	15.126191231399
24	176638	110	15.800332084391
24	178060	111	15.597661754303
24	179481	112	15.063545215712
24	180902	113	14.849502685666
24	182323	114	14.90307677614
24	183744	115	14.926033502934
24	185165	116	15.920012392546
24	186586	117	14.950870522577
24	188007	118	15.972406537738
24	189428	119	15.966165853385
24	190849	120	14.806560970866
24	192270	121	14.865998240979
24	193671	122	15.153890054091
24	195072	123	15.397317419481
24	196455	124	15.094303538604
24	197836	125	15.068139869603
17	341	5	916.51891571645
17	461	6	916.51891571645
17	601	7	916.8492469307
17	742	8	918.75832327971
17	921	9	922.09066221906
17	1102	10	926.82979108042
17	1302	11	932.62654494061
17	1522	12	939.88558416603
17	1743	13	948.59266980876
17	2002	14	958.37422264697
17	2263	15	971.03653066409
17	2543	16	985.64114470629
17	2843	17	1000.854933098
17	3144	18	1015.9558644487
17	3464	19	1031.7884084784
17	3804	20	1047.6486342594
17	4164	21	1063.4530485993
17	4525	22	1079.0477503193
17	4924	23	1091.2931135878
17	5325	24	1100.4115373199
17	5745	25	1105.0538113518
17	6185	26	1110.9865083644
17	6626	27	1119.1513423206
17	7086	28	1129.6186640525
17	7566	29	1141.4287727218
17	8047	30	1155.1079652222
17	8547	31	1169.8868522127
17	9067	32	1183.3742450929
17	9588	33	1194.4621968745
17	10147	34	1203.9537601455
17	10708	35	1207.8917557106
17	11288	36	1211.2951808538
17	11888	37	1215.4270042505
17	12489	38	1219.4603518521
17	13128	39	1223.0544317356
17	13769	40	1226.8231211589
17	14429	41	1231.1177289262
17	15109	42	1235.4863717783
17	15790	43	1240.0122967996
17	16509	44	1243.9825948639
17	17230	45	1247.4899899118
17	17951	46	1251.1770259157
17	18710	47	1254.8353604232
17	19471	48	1258.7952966541
17	20270	49	1263.8513319398
17	21071	50	1269.1331993529
17	21891	51	1273.3631382849
17	22731	52	1276.7489294867
17	23572	53	1278.7675688407
17	24451	54	1281.3879978337
17	25332	55	1284.7495452355
17	26213	56	1288.8742520618
17	27132	57	1293.7333430881
17	28053	58	1298.3943497799
17	29012	59	1302.1170043022
17	29973	60	1305.2080029261
17	30934	61	1306.9086307535
17	31933	62	1309.1254804508
17	32934	63	1312.0683217012
17	33954	64	1315.5199776744
17	34994	65	1319.6834434962
17	36035	66	1324.5203266654
17	37114	67	1329.2224378481
17	38195	68	1333.982378944
17	39276	69	1338.6690864552
17	40395	70	1343.506789865
17	41516	71	1348.2357793433
17	42656	72	1353.24065137
17	43816	73	1358.1183311261
17	44997	74	1362.960787919
17	46197	75	1368.3999045148
17	47398	76	1373.6207435407
17	48618	77	1379.1409373903
17	49858	78	1384.8610622501
17	51099	79	1390.9102277983
17	52378	80	1398.2509566446
17	53659	81	1406.212213478
17	54940	82	1413.6285132373
17	56259	83	1421.1034885593
17	57580	84	1428.4794292851
17	58939	85	1436.4551040679
17	74200	86	1443.9867551115
17	96330	87	1451.4181456674
17	124153	88	1459.2243305177
17	132559	89	1466.1179199645
17	143303	90	1472.4252714623
17	146661	91	1477.7835338131
17	150648	92	1480.5828245446
17	152481	93	1485.2230538685
17	153901	94	1488.2123634382
17	155322	95	1493.0254700852
17	156743	96	1499.2564799561
17	158164	97	1506.0885651055
17	159586	98	1511.3681033782
17	161007	99	1519.8038401547
17	162428	100	1526.1745589318
17	163849	101	1534.3811647852
17	165270	102	1544.0048339109
17	166691	103	1553.7720703045
17	168112	104	1563.9404501934
17	169533	105	1571.1720616861
17	170954	106	1578.2904631134
17	172375	107	1588.5533420473
17	173796	108	1596.2345219674
17	175217	109	1603.9854552066
17	176638	110	1611.0962281565
17	178060	111	1617.9433990371
17	179481	112	1624.0217388178
17	180902	113	1629.2973708635
17	182323	114	1634.0372974284
17	183744	115	1638.6257332957
17	185165	116	1643.221237198
17	186586	117	1647.4300102994
17	188007	118	1650.4659906519
17	189428	119	1653.321863827
17	190849	120	1656.176621165
17	192270	121	1658.5623974019
17	193671	122	1660.833129229
17	195072	123	1663.1120982551
17	196455	124	1664.3968451438
17	197836	125	1665.0317860731
16	341	5	1593.3739804024
16	461	6	1593.3739804024
16	601	7	1593.0810451747
16	742	8	1591.3880906765
16	921	9	1588.2270003013
16	1102	10	1583.5886803989
16	1302	11	1577.9152328971
16	1522	12	1570.810605212
16	1743	13	1562.288733406
16	2002	14	1552.7152500648
16	2263	15	1543.8289073074
16	2543	16	1540.9729346986
16	2843	17	1542.1092388711
16	3144	18	1543.3069227246
16	3464	19	1544.5626321841
16	3804	20	1545.8205371364
16	4164	21	1547.1327973296
16	4525	22	1548.6707910133
16	4924	23	1549.3805921731
16	5325	24	1549.2932161694
16	5745	25	1548.3633630877
16	6185	26	1547.3649542764
16	6626	27	1545.1696253494
16	7086	28	1541.0293923161
16	7566	29	1536.1198922302
16	8047	30	1531.3370809837
16	8547	31	1528.0161685077
16	9067	32	1520.6271889828
16	9588	33	1510.7948576943
16	10147	34	1498.4384197453
16	10708	35	1483.276327369
16	11288	36	1469.0962043074
16	11888	37	1453.9444595787
16	12489	38	1439.1794755555
16	13128	39	1424.2957017373
16	13769	40	1408.7924445029
16	14429	41	1394.0088356281
16	15109	42	1379.7212534762
16	15790	43	1364.9192823047
16	16509	44	1349.627294925
16	17230	45	1334.973751923
16	17951	46	1319.5696871122
16	18710	47	1304.2855342612
16	19471	48	1288.9402579323
16	20270	49	1274.6639314147
16	21071	50	1259.7499405994
16	21891	51	1246.9774330302
16	22731	52	1236.3309585683
16	23572	53	1229.9834341494
16	24451	54	1221.6919244042
16	25332	55	1210.9760758782
16	26213	56	1198.0771511871
16	27132	57	1182.9256822423
16	28053	58	1168.3918738077
16	29012	59	1156.8744931461
16	29973	60	1147.3564308873
16	30934	61	1142.1197150198
16	31933	62	1135.3596748982
16	32934	63	1126.4265167916
16	33954	64	1116.0897571366
16	34994	65	1103.6234006812
16	36035	66	1089.1406806828
16	37114	67	1075.0614984328
16	38195	68	1060.686929374
16	39276	69	1046.6776492482
16	40395	70	1032.273232666
16	41516	71	1018.1925152909
16	42656	72	1003.2903488072
16	43816	73	988.76690137554
16	44997	74	974.34833144343
16	46197	75	959.64966043204
16	47398	76	945.81034164285
16	48618	77	931.17749774866
16	49858	78	916.82856982492
16	51099	79	902.61079116929
16	52378	80	888.82103494865
16	53659	81	875.34717911098
16	54940	82	862.44981463358
16	56259	83	849.45041003624
16	57580	84	836.6313522586
16	58939	85	822.89118949438
16	74200	86	809.95253887985
16	96330	87	797.1861261204
16	124153	88	783.7758528848
16	132559	89	770.44955046554
16	143303	90	756.99284594921
16	146661	91	743.29451608302
16	150648	92	729.24051125648
16	152481	93	714.73928888392
16	153901	94	700.17119618084
16	155322	95	685.35875120985
16	156743	96	670.65550001056
16	158164	97	657.6864540528
16	159586	98	649.54905604762
16	161007	99	646.54752536557
16	162428	100	636.20229597734
16	163849	101	624.28918809019
16	165270	102	612.45621975764
16	166691	103	601.08497973351
16	168112	104	589.24671927636
16	169533	105	576.01532644559
16	170954	106	561.77016203749
16	172375	107	549.70884640011
16	173796	108	535.81585316555
16	175217	109	521.79669671105
16	176638	110	508.41058876528
16	178060	111	494.13562714938
16	179481	112	479.73952722095
16	180902	113	465.71979495561
16	182323	114	451.63059631992
16	183744	115	437.50383643966
16	185165	116	423.35531567258
16	186586	117	408.06877771444
16	188007	118	393.48644256624
16	189428	119	377.82570325292
16	190849	120	362.17108285039
16	192270	121	347.60035226696
16	193671	122	332.90444237396
16	195072	123	317.91848383831
16	196455	124	302.59150675703
16	197836	125	287.50618605588
41	1102	10	3.9535579137038
41	1302	11	4.9501488136637
41	1522	12	5.6407186206977
41	1743	13	7.3654800823863
41	2002	14	7.1930587001801
41	2263	15	9.1503283861779
41	2543	16	7.6491662299948
41	2843	17	1.3589157683511
41	3144	18	0.973
41	3464	19	1.4486533772074
41	3804	20	4.3863860232502
41	4164	21	1.6158980427838
41	4525	22	5.0791210005168
41	4924	23	0.973
41	5325	24	0.973
41	5745	25	0.973
41	6185	26	0.973
41	6626	27	5.544732519896
41	7086	28	6.207445371035
41	7566	29	6.4540094925267
41	8047	30	8.5273836370086
41	8547	31	6.7827606757411
41	9067	32	6.2065671742733
41	9588	33	0.973
41	10147	34	4.7632332013908
41	10708	35	1.1332875634678
41	11288	36	1.0987325519013
41	11888	37	2.5154331971027
41	12489	38	3.7869526791098
41	13128	39	1.2908311181108
41	13769	40	1.6061864793669
41	14429	41	5.2888444116649
41	15109	42	1.3211530559755
41	15790	43	1.5442002044217
41	16509	44	1.5233131321997
41	17230	45	3.5939975022824
41	17951	46	3.3194601051741
41	18710	47	0.973
41	19471	48	2.1650075846083
41	20270	49	1.5171299724871
41	21071	50	3.6452430948725
41	21891	51	1.6632679561051
41	22731	52	0.973
41	23572	53	0.973
41	24451	54	0.973
41	25332	55	0.973
41	26213	56	3.0544778277287
41	27132	57	4.8391830244804
41	28053	58	6.4744781681527
41	29012	59	7.1111882234375
41	29973	60	10.627401387959
41	30934	61	7.3311626081767
41	31933	62	0.973
41	32934	63	0.973
41	33954	64	0.973
41	34994	65	5.6731858071333
41	36035	66	4.9929900389333
41	37114	67	5.403494546076
41	38195	68	6.0211137108188
41	39276	69	8.5428911535704
41	40395	70	4.9939689294753
41	41516	71	6.4034637631898
41	42656	72	2.4411601765182
41	43816	73	1.4040571070836
41	44997	74	2.7048411175688
41	46197	75	0.973
41	47398	76	6.3751908313316
41	48618	77	0.973
41	49858	78	0.973
41	51099	79	6.1022841698059
41	52378	80	1.3739081069324
41	53659	81	0.973
41	54940	82	3.8947729464927
41	56259	83	0.973
41	57580	84	0.973
41	58939	85	5.8786137614862
41	74200	86	0.973
41	96330	87	6.6319937327552
41	124153	88	0.973
41	132559	89	3.3799013163829
41	143303	90	3.3133825246148
41	146661	91	0.973
41	150648	92	3.7018995824743
41	152481	93	1.0519712965799
41	153901	94	4.5613851557224
41	155322	95	1.5537463531098
41	156743	96	2.3858726725511
41	158164	97	2.3139125604427
41	159586	98	0.973
41	161007	99	4.2503239023273
41	162428	100	0.973
41	163849	101	0.973
41	165270	102	3.7207521364344
41	166691	103	7.089701697825
41	168112	104	11.365790665352
41	169533	105	3.887325721624
41	170954	106	0.973
41	172375	107	1.5595551055195
41	173796	108	6.2886302339344
41	175217	109	0.973
41	176638	110	4.7005616224319
41	178060	111	2.1858251015513
41	179481	112	2.4501424414499
41	180902	113	0.973
41	182323	114	6.8577155952437
41	183744	115	0.973
41	185165	116	3.5487721447023
41	186586	117	3.8782784333965
41	188007	118	0.973
41	189428	119	1.9987527008651
41	190849	120	2.7774757772675
41	192270	121	4.8607477602014
41	193671	122	1.844261640906
41	195072	123	0.973
41	196455	124	1.2214309891157
41	197836	125	4.0977496516939
41	199217	126	4.3550349430693
41	200578	127	0.973
41	201939	128	4.5197002495416
41	203300	129	0.973
40	1102	10	2.4155336979311
40	1302	11	2.1719266681466
40	1522	12	1.9519329612609
40	1743	13	2.1622719867853
40	2002	14	1.7529666066635
40	2263	15	2.011885799258
40	2543	16	1.4032669416636
40	2843	17	-0.22922852167394
40	3144	18	-0.80922953074332
40	3464	19	-0.18785671729129
40	3804	20	0.59709224253893
40	4164	21	-0.15005340315402
40	4525	22	0.73793340355624
40	4924	23	-1.44046912383
40	5325	24	-1.8577071858836
40	5745	25	-4.3048646100176
40	6185	26	-3.2203988052206
40	6626	27	2.2776585371932
40	7086	28	2.0199117310578
40	7566	29	1.7447784148622
40	8047	30	2.0656206130283
40	8547	31	1.3384768957272
40	9067	32	1.0625619743008
40	9588	33	-0.83191110310145
40	10147	34	0.68922916408628
40	10708	35	-0.28202345431782
40	11288	36	-0.28821370191872
40	11888	37	0.10289216374513
40	12489	38	0.42931084139273
40	13128	39	-0.23900910906959
40	13769	40	-0.14970234630164
40	14429	41	0.79946665465832
40	15109	42	-0.23711321277078
40	15790	43	-0.17436415548436
40	16509	44	-0.17662184832152
40	17230	45	0.36699160824064
40	17951	46	0.28024424170144
40	18710	47	-0.77612599907443
40	19471	48	0.0020038037793721
40	20270	49	-0.17261843227316
40	21071	50	0.39573244652711
40	21891	51	-0.13761810685974
40	22731	52	-0.88650746099273
40	23572	53	-3.7891921758109
40	24451	54	-2.7156127041094
40	25332	55	-3.9037997804766
40	26213	56	1.3312587077497
40	27132	57	1.9380381025374
40	28053	58	2.1537052321015
40	29012	59	1.9580993728247
40	29973	60	2.5758509419626
40	30934	61	1.4021209425575
40	31933	62	-1.5208919674458
40	32934	63	-4.3651110400911
40	33954	64	-4.0136286192574
40	34994	65	2.2615903673228
40	36035	66	1.5284379143734
40	37114	67	1.4391225100961
40	38195	68	1.4385181193007
40	39276	69	1.9340074359206
40	40395	70	0.80735611429643
40	41516	71	1.0884809886338
40	42656	72	0.050031209061853
40	43816	73	-0.2167900348315
40	44997	74	0.1224361584289
40	46197	75	-0.88409878523089
40	47398	76	1.0674162414623
40	48618	77	-0.74282749285921
40	49858	78	-0.39800806618296
40	51099	79	1.0090001958655
40	52378	80	-0.22393848295324
40	53659	81	-0.49902443883475
40	54940	82	0.4478311459301
40	56259	83	-0.33284514325205
40	57580	84	-0.41893900677096
40	58939	85	0.95688230292872
40	74200	86	-1.049937874428
40	96330	87	1.1449618730927
40	124153	88	-0.70054919959512
40	132559	89	0.31513807345182
40	143303	90	0.2833552940283
40	146661	91	-0.91377248186618
40	150648	92	0.41369957914576
40	152481	93	-0.30231889982242
40	153901	94	0.62386605748907
40	155322	95	-0.17224739673548
40	156743	96	0.04972291965969
40	158164	97	0.029480255767703
40	159586	98	-0.80401769177988
40	161007	99	0.56336592712905
40	162428	100	-1.3540253724885
40	163849	101	-4.3006411338225
40	165270	102	0.7979054299416
40	166691	103	1.777147970628
40	168112	104	2.593293105159
40	169533	105	0.46600936872245
40	170954	106	-0.37782776644453
40	172375	107	-0.15652966958005
40	173796	108	1.0654259583913
40	175217	109	-0.84253715821542
40	176638	110	0.66117582733277
40	178060	111	-0.0072467615595091
40	179481	112	0.060947356163524
40	180902	113	-0.86881795977242
40	182323	114	1.1939350768924
[...]
239	342189	290	8.2051668946717
239	342570	291	7.200508845676
239	342951	292	7.9197545585076
239	343332	293	7.5974894848273
239	343713	294	7.6528133801503
239	344094	295	7.2035529440122
239	344475	296	7.5064525357068
239	344856	297	7.4278033034263
239	345217	298	7.3003044052136
239	345578	299	7.3251564262754
239	345939	300	8.0768901619448
239	346300	301	8.0484551534841
239	346661	302	7.477709896778
239	347022	303	8.1739395766372
239	347383	304	7.5058542066805
239	347744	305	7.4803084137703
239	348105	306	8.2556921743874
239	348466	307	7.4113752905133
239	348827	308	7.0820120308169
239	349188	309	8.1058212811213
239	349549	310	7.1040643998973
239	349910	311	7.8347475792367
239	350271	312	7.0802785852079
239	350632	313	7.0270302996125
239	350993	314	7.8821282297459
239	351354	315	7.5768216653347
239	351715	316	7.6038702121789
239	352076	317	7.6954101373993
239	352437	318	7.2071241520198
239	352798	319	8.3088081776949
239	353159	320	7.7939131247897
239	353520	321	7.9914806118321
239	353881	322	7.9845987220381
239	354242	323	10.438878523078
239	354603	324	13.016206342573
239	354944	325	15.171886214646
239	355285	326	14.74493398557
239	355626	327	15.392246039398
239	355967	328	15.891479390883
239	356308	329	14.816141949082
239	356649	330	15.727176879789
239	356970	331	15.687212723098
239	357291	332	15.634127078881
239	357592	333	15.419149825675
239	357893	334	15.554833934596
239	358174	335	14.260146759582
239	358455	336	10.255899833765
239	358736	337	7.5076104952748
239	359017	338	6.6159824982545
239	359298	339	8.2419678794247
239	359559	340	10.723784168999
239	359820	341	12.599577474015
239	360081	342	14.086538574987
239	360342	343	15.37027462658
239	360603	344	14.850542778336
239	360864	345	15.473222366581
239	361105	346	15.172096731467
239	361346	347	15.040340829012
239	361567	348	14.960635610647
239	361768	349	14.865286678821
239	361969	350	15.519668364758
239	362150	351	15.56709360152
239	362331	352	15.752419881779
239	362512	353	15.874293131684
239	362693	354	14.744632445928
239	362874	355	15.939814932714
239	363055	356	15.428752014181
239	363236	357	15.516425597365
239	363397	358	15.524873826257
239	363538	359	15.223895786609
239	363679	360	14.990209355438
239	363800	361	15.525354078063
239	363921	362	15.778585231863
243	32934	63	2.3234461967368
243	33954	64	2.1365972135216
243	34994	65	1.8504405168118
243	36035	66	1.6535848676693
243	37114	67	1.7068242114969
243	38195	68	2.0831053399714
243	39276	69	1.3957440755097
243	40395	70	0.99115687968361
243	41516	71	0.74308545114472
243	42656	72	-0.13645846110303
243	43816	73	0.36835372652858
243	44997	74	-0.21910251271911
243	46197	75	-0.64999712756835
243	47398	76	0.34796685597394
243	48618	77	0.46756477346644
243	49858	78	0.24200131960679
243	51099	79	0.00085550851654226
243	52378	80	-0.016785222035834
243	53659	81	-0.50555428715888
243	54940	82	-0.02031329816673
243	56259	83	0.16163096532691
243	57580	84	0.40674696366768
243	58939	85	-1.1011501729023
243	74200	86	0.90086408730131
243	96330	87	0.17298094464932
243	124153	88	-0.87159717178438
243	132559	89	-0.11033653831109
243	143303	90	0.29808705765754
243	146661	91	-0.20244247906376
243	150648	92	0.45760127997491
243	152481	93	-0.36202556043863
243	153901	94	0.2802272208035
243	155322	95	0.20967996227555
243	156743	96	-0.9499237240525
243	158164	97	0.41953094985802
243	159586	98	-0.32268025930971
243	161007	99	0.51477725384757
243	162428	100	-0.23480026845355
243	163849	101	0.65703675774857
243	165270	102	-0.90176378889009
243	166691	103	0.3374328491278
243	168112	104	-0.41495099077001
243	169533	105	0.56190426773392
243	170954	106	-0.37444671553094
243	172375	107	0.76466094118077
243	173796	108	-0.68215906970964
243	175217	109	-2.7345796793166
243	176638	110	-2.8606803122597
243	178060	111	-1.9486727635298
243	179481	112	-1.1240131068694
243	180902	113	1.4569984137135
243	182323	114	-0.67156967615771
243	183744	115	-0.53313736192514
243	185165	116	-0.89085981686882
243	186586	117	2.2309750466873
243	188007	118	-2.2908512590786
243	189428	119	0.76051136640098
243	190849	120	2.2091965714237
243	192270	121	2.2146920722444
243	193671	122	1.6101116264937
243	195072	123	2.4201729320223
243	196455	124	-1.4701080546704
243	197836	125	-3.7028888701725
243	199217	126	-0.48238223064232
243	200578	127	-3.2174157345593
243	201939	128	1.4545947889273
243	203300	129	-1.5979052395198
243	204661	130	0.70250278706144
243	206002	131	0.35558624884321
243	207343	132	-0.32391999173713
243	208684	133	0.93293327043303
243	210005	134	1.7456542655826
243	211326	135	-0.2661471220481
243	212628	136	2.263221060605
243	213930	137	0.57855550686629
243	215211	138	-0.7910627308717
243	216492	139	-1.1846230044238
243	217773	140	-3.594766999851
243	219034	141	1.3066574566299
243	220295	142	2.0429072462721
243	221556	143	1.6481567657785
243	222797	144	-0.7025637038999
243	224038	145	-1.3017186298479
243	225279	146	-1.9914264344149
243	226500	147	-0.22892645671727
243	227722	148	0.24434876996211
243	228943	149	1.9076268916717
243	230165	150	1.1516600345323
243	231386	151	-0.13383792536333
243	232607	152	2.2810537795536
243	233828	153	1.4276471604826
243	235049	154	0.83909225745192
243	236270	155	1.0537949332735
243	237491	156	-0.17314230629709
243	238712	157	-0.33230772158131
243	239933	158	0.052695913054048
243	241154	159	0.24136138965842
243	242375	160	-0.7940114344703
243	243597	161	0.34699049587362
243	244818	162	0.82474561168346
243	246039	163	-1.1934291181853
243	247240	164	0.023014744766988
243	248441	165	0.82776936751325
243	249642	166	-0.82301390285138
243	250843	167	-0.0422243345296
243	252024	168	-1.3859098156335
243	253205	169	-2.4029370816277
243	254386	170	-2.5482298469276
243	255547	171	0.19449623659712
243	256708	172	-2.7388670331899
243	257869	173	-1.0287412395931
243	259011	174	-0.3358949277015
243	260152	175	0.67989248883978
243	261293	176	-1.0965186316769
243	262414	177	0.36105983136222
243	263535	178	-0.84522385734599
243	264656	179	1.5551387401996
243	265777	180	2.3826837335713
243	266878	181	1.4321895330912
243	267979	182	2.0636942961952
243	269080	183	1.5301546487259
243	270161	184	1.7878014087573
243	271242	185	-4.5
243	272323	186	-1.5160020806249
243	273405	187	-4.0377888066803
243	274466	188	1.6117575277109
243	275527	189	1.8046316351742
243	276568	190	2.4108989743749
243	277609	191	1.355813150946
243	278630	192	-2.3323753992168
243	279631	193	-4.2679677783736
243	280632	194	-3.609811397649
243	281613	195	-0.25958332045924
243	282574	196	-0.90583148534118
243	283515	197	-0.050370522971792
243	284456	198	0.15047939149698
243	285377	199	0.28935732270348
243	286299	200	1.751447598887
243	287180	201	1.9225519064669
243	288061	202	1.2051320589855
243	288902	203	1.3927994553578
243	289743	204	1.0148981777687
243	290564	205	2.0554152008612
243	291345	206	1.5579108442422
243	292126	207	1.0342735092397
243	292907	208	1.3846767416457
243	293648	209	0.84844525194166
243	294369	210	0.62182184000856
243	295070	211	-0.75665221522246
243	295771	212	1.1612436839278
243	296472	213	-0.15298025769419
243	297153	214	-0.673848821335
243	297834	215	0.19054184798628
243	298515	216	-0.21323018995627
243	299196	217	-0.050566400264886
243	299877	218	0.50596840737025
243	300558	219	-0.32118331666609
243	301239	220	-0.95893361286756
243	301920	221	0.22016546698265
243	302601	222	0.65105807785809
243	303282	223	-0.051235192157993
243	303963	224	0.099896654491976
243	304644	225	0.28577097696252
243	305325	226	-0.35205319358502
243	306006	227	0.23102882138919
243	306687	228	0.66133698315825
243	307368	229	-0.66460621990263
243	308049	230	0.23277233534027
243	308730	231	-1.4310705533739
243	309411	232	-2.2787381988407
243	310092	233	-2.7930633789627
243	310753	234	-2.4207328300835
243	311414	235	-4.4374991635917
243	312075	236	0.23686793732474
243	312736	237	-0.74681973239057
243	313397	238	-0.77856509459665
243	314058	239	-0.28014650648592
243	314719	240	-0.019397059436045
243	315380	241	-0.22052491627182
243	316021	242	-0.077322999464126
243	316662	243	-0.075444504079951
243	317303	244	-0.040663574099592
243	317944	245	-0.00083170041701921
243	318585	246	0.025437199843686
243	319226	247	0.33554802969209
243	319867	248	0.44247296402055
243	320508	249	1.198863697225
243	321149	250	2.243421276062
243	321790	251	-0.61278330846831
243	322431	252	0.27418834190391
243	323072	253	0.70938633042117
243	323693	254	0.84197226116628
243	324314	255	-1.0491295801981
243	324935	256	-0.26365532167016
243	325556	257	-0.55606113539589
243	326177	258	1.2713449753821
243	326798	259	0.49911798090479
243	327419	260	-0.16206942431886
243	328020	261	0.1601620351454
243	328621	262	0.64577464549999
243	329222	263	-0.96905569966957
243	329823	264	-0.68856690928462
243	330424	265	-0.24654216791969
243	331025	266	0.61448345927056
243	331626	267	1.5992439429741
243	332207	268	2.0409752738662
243	332788	269	1.5590448340867
243	333349	270	1.4228822101373
243	333910	271	1.689725417085
243	334451	272	2.430971434433
243	334972	273	-0.5190960538952
243	335473	274	0.37195226440672
243	335974	275	-0.57819301977288
243	336455	276	-2.7016334223475
243	336936	277	-4.2653038876131
243	337397	278	-0.36510762360413
243	337838	279	0.34331159710418
243	338259	280	-0.37746466021053
243	338680	281	0.61999352413695
243	339081	282	-0.69037887407467
243	339482	283	0.067584346188232
243	339883	284	0.66098544595297
243	340284	285	-0.33482293291017
243	340665	286	0.13932691130321
243	341046	287	-0.14512342510279
243	341427	288	0.10501775378361
243	341808	289	-0.63094893940724
243	342189	290	1.0444968011929
243	342570	291	-1.0046580489958
243	342951	292	0.71924571283162
243	343332	293	-0.32226507368032
243	343713	294	0.05532389532309
243	344094	295	-0.44926043613814
243	344475	296	0.30289959169459
243	344856	297	-0.078649232280441
243	345217	298	-0.1274988982128
243	345578	299	0.024852021061815
243	345939	300	0.75173373566941
243	346300	301	-0.028435008460656
243	346661	302	-0.57074525670614
243	347022	303	0.69622967985924
243	347383	304	-0.66808536995668
243	347744	305	-0.02554579291027
243	348105	306	0.77538376061711
243	348466	307	-0.84431688387413
243	348827	308	-0.3293632596964
243	349188	309	1.0238092503045
243	349549	310	-1.001756881224
243	349910	311	0.73068317933939
243	350271	312	-0.75446899402887
243	350632	313	-0.053248285595328
243	350993	314	0.85509793013334
243	351354	315	-0.30530656441115
243	351715	316	0.027048546844163
243	352076	317	0.091539925220422
243	352437	318	-0.48828598537948
243	352798	319	1.1016840256751
243	353159	320	-0.51489505290519
243	353520	321	0.1975674870424
243	353881	322	-0.0068818897940215
243	354242	323	2.45427980104
243	354603	324	2.5773278194945
243	354944	325	2.1556798720732
243	355285	326	-0.42695222907628
243	355626	327	0.6473120538285
243	355967	328	0.49923335148487
243	356308	329	-1.0753374418011
243	356649	330	0.91103493070696
243	356970	331	-0.039964156690985
243	357291	332	-0.053085644217207
243	357592	333	-0.21497725320514
243	357893	334	0.1356841089204
243	358174	335	-1.2946871750141
243	358455	336	-4.0042469258167
243	358736	337	-2.7482893384903
243	359017	338	-0.89162799702026
243	359298	339	1.6259853811702
243	359559	340	2.4818162895739
243	359820	341	1.8757933050161
243	360081	342	1.4869611009723
243	360342	343	1.2837360515931
243	360603	344	-0.51973184824455
243	360864	345	0.62267958824523
243	361105	346	-0.30112563511357
243	361346	347	-0.13175590245519
243	361567	348	-0.079705218365417
243	361768	349	-0.09534893182572
243	361969	350	0.65438168593682
243	362150	351	0.047425236762502
243	362331	352	0.18532628025859
243	362512	353	0.12187324990518
243	362693	354	-1.1296606857562
243	362874	355	1.1951824867865
243	363055	356	-0.51106291853357
243	363236	357	0.087673583184369
243	363397	358	0.0084482288919396
243	363538	359	-0.30097803964745
243	363679	360	-0.23368643117137
243	363800	361	0.53514472262468
243	363921	362	0.25323115380015
244	32934	63	2.9239432327278
244	33954	64	4.0029873772053
244	34994	65	4.583567903804
244	36035	66	5.0197832220369
244	37114	67	5.9573615883315
244	38195	68	8.1148334622632
244	39276	69	6.6625587430838
244	40395	70	5.6572798172897
244	41516	71	4.989006558033
244	42656	72	1.6840462411484
244	43816	73	3.6331930381383
244	44997	74	1.3864967014797
244	46197	75	0.973
244	47398	76	3.4521171660591
244	48618	77	3.9979739027636
244	49858	78	3.1861775392151
244	51099	79	2.2587819129089
244	52378	80	2.189002797307
244	53659	81	0.973
244	54940	82	2.1168161521502
244	56259	83	2.8177076828898
244	57580	84	3.8255911272923
244	58939	85	0.973
244	74200	86	5.6620813506407
244	96330	87	2.9205943802927
244	124153	88	0.973
244	132559	89	1.7445587535657
244	143303	90	3.2734136270848
244	146661	91	1.4180436041906
244	150648	92	3.9178462656586
244	152481	93	0.973
244	153901	94	3.2390756962791
244	155322	95	3.0111951467436
244	156743	96	0.973
244	158164	97	3.6890333202394
244	159586	98	0.973
244	161007	99	4.0817110485207
244	162428	100	1.3011829922055
244	163849	101	4.7223894117244
244	165270	102	0.973
244	166691	103	3.3993869600303
244	168112	104	0.973
244	169533	105	4.2569130360624
244	170954	106	0.973
244	172375	107	5.1225125332245
244	173796	108	0.973
244	175217	109	0.973
244	176638	110	0.973
244	178060	111	0.973
244	179481	112	0.973
244	180902	113	4.2779338801577
244	182323	114	0.973
244	183744	115	0.973
244	185165	116	0.973
244	186586	117	5.818540946188
244	188007	118	0.973
244	189428	119	2.6224237419522
244	190849	120	6.1839171163109
244	192270	121	7.5427781210059
244	193671	122	6.7249923657352
244	195072	123	10.811627042153
244	196455	124	0.973
244	197836	125	0.973
244	199217	126	0.973
244	200578	127	0.973
244	201939	128	4.1244405355759
244	203300	129	0.973
244	204661	130	2.564804238315
244	206002	131	2.0678549079603
244	207343	132	0.973
244	208684	133	3.2062183889007
244	210005	134	5.5343393875064
244	211326	135	0.973
244	212628	136	7.9357865109089
244	213930	137	3.4883197549234
244	215211	138	0.973
244	216492	139	0.973
244	217773	140	0.973
244	219034	141	3.9063724092349
244	220295	142	6.3995100115064
244	221556	143	6.2673637033491
244	222797	144	0.973
244	224038	145	0.973
244	225279	146	0.973
244	226500	147	0.973
244	227722	148	1.9279745067068
244	228943	149	5.8593980523333
244	230165	150	4.5876589174683
244	231386	151	1.3722242514357
244	232607	152	8.7692867639551
244	233828	153	6.826345999958
244	235049	154	5.1079832579694
244	236270	155	6.2592563843288
244	237491	156	1.5663069834457
244	238712	157	0.973
244	239933	158	2.3826119015436
244	241154	159	3.1233997503417
244	242375	160	0.973
244	243597	161	3.4326225639379
244	244818	162	5.4383420606782
244	246039	163	0.973
244	247240	164	2.2081469628273
244	248441	165	5.3413396869875
244	249642	166	0.973
244	250843	167	1.9713889217869
244	252024	168	0.973
244	253205	169	0.973
244	254386	170	0.973
244	255547	171	1.9917023704584
244	256708	172	0.973
244	257869	173	0.973
244	259011	174	0.973
244	260152	175	2.2301208523926
244	261293	176	0.973
244	262414	177	1.7247939206718
244	263535	178	0.973
244	264656	179	3.3200564232723
244	265777	180	5.866269258965
244	266878	181	4.7215191458611
244	267979	182	7.2763602052103
244	269080	183	6.5502345898558
244	270161	184	8.2796779145343
244	271242	185	0.973
244	272323	186	0.973
244	273405	187	0.973
244	274466	188	3.7268915776518
244	275527	189	4.8989087285145
244	276568	190	7.6027297443142
244	277609	191	5.5709653259087
244	278630	192	0.973
244	279631	193	0.973
244	280632	194	0.973
244	281613	195	0.973
244	282574	196	0.973
244	283515	197	1.1133815374032
244	284456	198	1.1306331048601
244	285377	199	1.1729542446627
244	286299	200	2.1858036975247
244	287180	201	3.2693346533268
244	288061	202	2.9577829960477
244	288902	203	3.7517549290052
244	289743	204	3.4442141448506
244	290564	205	6.5673862012935
244	291345	206	6.0924808927755
244	292126	207	4.9982514685664
244	292907	208	6.6465295945583
244	293648	209	5.1186884074398
244	294369	210	4.4777959570242
244	295070	211	0.973
244	295771	212	6.6295541070366
244	296472	213	1.6361001449235
244	297153	214	0.973
244	297834	215	2.8484934481573
244	298515	216	1.3673871398946
244	299196	217	1.9457176030256
244	299877	218	4.0524357913921
244	300558	219	0.973
244	301239	220	0.973
244	301920	221	2.8245241898932
244	302601	222	4.4787701966116
244	303282	223	1.9477746522094
244	303963	224	2.5028882965226
244	304644	225	3.225183462577
244	305325	226	0.973
244	306006	227	3.0035509048431
244	306687	228	4.7545818888308
244	307368	229	0.973
244	308049	230	3.048654762599
244	308730	231	0.973
244	309411	232	0.973
244	310092	233	0.973
244	310753	234	0.973
244	311414	235	0.973
244	312075	236	1.3473011701406
244	312736	237	0.973
244	313397	238	0.973
244	314058	239	0.973
244	314719	240	1.1282260312631
244	315380	241	0.973
244	316021	242	1.1135633817023
244	316662	243	1.1113500157785
244	317303	244	1.1101633714086
244	317944	245	1.110164214946
244	318585	246	1.1115688877698
244	319226	247	1.1570515475392
244	319867	248	1.2350143235782
244	320508	249	1.7870131219346
244	321149	250	3.6194377680505
244	321790	251	0.973
244	322431	252	1.5625780656581
244	323072	253	2.1318127011056
244	323693	254	2.4968440679416
244	324314	255	0.973
244	324935	256	0.973
244	325556	257	0.973
244	326177	258	2.8457241109062
244	326798	259	2.0281576783951
244	327419	260	0.973
244	328020	261	1.5898377653096
244	328621	262	2.3547685341283
244	329222	263	0.973
244	329823	264	0.973
244	330424	265	0.973
244	331025	266	2.0459339492359
244	331626	267	3.8726903326252
244	332207	268	5.6781881003353
244	332788	269	5.4046026441231
244	333349	270	5.6803533615308
244	333910	271	7.248857194342
244	334451	272	11.255000574375
244	334972	273	0.973
244	335473	274	3.5531568788896
244	335974	275	0.973
244	336455	276	0.973
244	336936	277	0.973
244	337397	278	0.973
244	337838	279	2.1675646436837
244	338259	280	0.973
244	338680	281	2.7362028412083
244	339081	282	0.973
244	339482	283	1.6222512192368
244	339883	284	2.8237316992652
244	340284	285	0.973
244	340665	286	1.7951500437713
244	341046	287	1.2539189525304
244	341427	288	1.7267653820915
244	341808	289	0.973
244	342189	290	3.6222835618656
244	342570	291	0.973
244	342951	292	2.9107340149993
244	343332	293	0.973
244	343713	294	1.6226105332536
244	344094	295	0.973
244	344475	296	2.0591463244151
244	344856	297	1.3653848633471
244	345217	298	1.2737899699421
244	345578	299	1.543548139002
244	345939	300	3.0115767650092
244	346300	301	1.4912653643076
244	346661	302	0.973
244	347022	303	2.9262778975395
244	347383	304	0.973
244	347744	305	1.4634634635392
244	348105	306	3.1029546627765
244	348466	307	0.973
244	348827	308	0.973
244	349188	309	3.5502390359834
244	349549	310	0.973
244	349910	311	2.912032401234
244	350271	312	0.973
244	350632	313	1.3908616467325
244	350993	314	3.1598098030623
244	351354	315	0.973
244	351715	316	1.5669921410493
244	352076	317	1.6930946008983
244	352437	318	0.973
244	352798	319	3.769843472168
244	353159	320	0.973
244	353520	321	1.9231605407959
244	353881	322	1.5289596459699
244	354242	323	7.8930577438558
244	354603	324	10.026452583076
244	354944	325	10.046592758384
244	355285	326	0.973
244	355626	327	4.5906289502264
244	355967	328	4.159328871392
244	356308	329	0.973
244	356649	330	5.6810849074243
244	356970	331	2.0722854963855
244	357291	332	2.0171882554591
244	357592	333	1.3936133265342
244	357893	334	2.7166775306053
244	358174	335	0.973
244	358455	336	0.973
244	358736	337	0.973
244	359017	338	0.973
244	359298	339	4.7890313031712
244	359559	340	8.1553251830999
244	359820	341	7.5984204623416
244	360081	342	7.0957705666768
244	360342	343	6.9421656870277
244	360603	344	0.973
244	360864	345	4.5206570120404
244	361105	346	1.0634770267495
244	361346	347	1.672268478495
244	361567	348	1.8536534065112
244	361768	349	1.7889644163048
244	361969	350	4.6515320333872
244	362150	351	2.3873744103776
244	362331	352	2.9345462705184
244	362512	353	2.7115622151979
244	362693	354	0.973
244	362874	355	6.8443546813345
244	363055	356	0.973
244	363236	357	2.5314663142567
244	363397	358	2.2361951280365
244	363538	359	1.0660740153928
244	363679	360	1.3000712598199
244	363800	361	4.2069443962604
244	363921	362	3.1969971877929

