version 2
run WithBeaconingCT-0-20200806-16:01:15-71895
attr configname WithBeaconingCT
attr datetime 20200806-16:01:15
attr experiment WithBeaconingCT
attr inifile omnetpp.ini
attr iterationvars ""
attr iterationvarsf ""
attr measurement ""
attr network RSUExampleCatania
attr processid 71895
attr repetition 0
attr replication #0
attr resultdir results
attr runnumber 0
attr seedset 0
param *.node[*].applType "\"TraCICT11p\""
param *.rsu[*].appl.sendBeacons true
param *.node[*].appl.sendBeacons true
param *.playgroundSizeX 3000m
param *.playgroundSizeY 3000m
param *.playgroundSizeZ 50m
param *.annotations.draw true
param *.obstacles.obstacles "xmldoc(\"config.xml\", \"//AnalogueModel[@type='SimpleObstacleShadowing']/obstacles\")"
param *.manager.updateInterval 1s
param *.manager.host "\"localhost\""
param *.manager.port 9999
param *.manager.autoShutdown true
param *.manager.launchConfig "xmldoc(\"catania.launchd.xml\")"
param *.rsu[0].mobility.x 2000
param *.rsu[0].mobility.y 2000
param *.rsu[0].mobility.z 3
param *.rsu[*].applType "\"TraCIDemoRSU11p\""
param *.rsu[*].appl.headerLength "80 bit"
param *.rsu[*].appl.sendBeacons false
param *.rsu[*].appl.dataOnSch false
param *.rsu[*].appl.beaconInterval 1s
param *.rsu[*].appl.beaconUserPriority 7
param *.rsu[*].appl.dataUserPriority 5
param *.rsu[*].nic.phy80211p.antennaOffsetZ "0 m"
param *.connectionManager.sendDirect true
param *.connectionManager.maxInterfDist 2600m
param *.connectionManager.drawMaxIntfDist false
param *.**.nic.mac1609_4.useServiceChannel false
param *.**.nic.mac1609_4.txPower 20mW
param *.**.nic.mac1609_4.bitrate 6Mbps
param *.**.nic.phy80211p.minPowerLevel -110dBm
param *.**.nic.phy80211p.useNoiseFloor true
param *.**.nic.phy80211p.noiseFloor -98dBm
param *.**.nic.phy80211p.decider "xmldoc(\"config.xml\")"
param *.**.nic.phy80211p.analogueModels "xmldoc(\"config.xml\")"
param *.**.nic.phy80211p.usePropagationDelay true
param *.**.nic.phy80211p.antenna "xmldoc(\"antenna.xml\", \"/root/Antenna[@id='monopole']\")"
param *.node[*].nic.phy80211p.antennaOffsetY "0 m"
param *.node[*].nic.phy80211p.antennaOffsetZ "1000 m"
param *.node[*].applType "\"TraCIDemo11p\""
param *.node[*].appl.headerLength "80 bit"
param *.node[*].appl.sendBeacons false
param *.node[*].appl.dataOnSch false
param *.node[*].appl.beaconInterval 1s
param *.node[*].veinsmobility.x 0
param *.node[*].veinsmobility.y 0
param *.node[*].veinsmobility.z 0
param *.node[*].veinsmobility.setHostSpeed false
param *.node[*0].veinsmobility.accidentCount 1
param *.node[*0].veinsmobility.accidentStart 73s
param *.node[*0].veinsmobility.accidentDuration 50s

vector 0 RSUExampleCatania.node[0].veinsmobility posx ETV
vector 1 RSUExampleCatania.node[0].veinsmobility posy ETV
vector 2 RSUExampleCatania.node[1].veinsmobility posx ETV
vector 3 RSUExampleCatania.node[1].veinsmobility posy ETV
vector 4 RSUExampleCatania.node[0].veinsmobility speed ETV
vector 5 RSUExampleCatania.node[1].veinsmobility speed ETV
vector 6 RSUExampleCatania.node[2].veinsmobility posx ETV
vector 7 RSUExampleCatania.node[2].veinsmobility posy ETV
vector 8 RSUExampleCatania.node[3].veinsmobility posx ETV
vector 9 RSUExampleCatania.node[3].veinsmobility posy ETV
vector 10 RSUExampleCatania.node[0].veinsmobility acceleration ETV
vector 11 RSUExampleCatania.node[0].veinsmobility co2emission ETV
vector 12 RSUExampleCatania.node[1].veinsmobility acceleration ETV
vector 13 RSUExampleCatania.node[1].veinsmobility co2emission ETV
vector 14 RSUExampleCatania.node[2].veinsmobility speed ETV
vector 15 RSUExampleCatania.node[3].veinsmobility speed ETV
vector 16 RSUExampleCatania.node[4].veinsmobility posx ETV
vector 17 RSUExampleCatania.node[4].veinsmobility posy ETV
vector 18 RSUExampleCatania.node[2].veinsmobility acceleration ETV
vector 19 RSUExampleCatania.node[2].veinsmobility co2emission ETV
vector 20 RSUExampleCatania.node[3].veinsmobility acceleration ETV
vector 21 RSUExampleCatania.node[3].veinsmobility co2emission ETV
vector 22 RSUExampleCatania.node[5].veinsmobility posx ETV
vector 23 RSUExampleCatania.node[5].veinsmobility posy ETV
vector 24 RSUExampleCatania.node[4].veinsmobility speed ETV
vector 25 RSUExampleCatania.node[4].veinsmobility acceleration ETV
vector 26 RSUExampleCatania.node[4].veinsmobility co2emission ETV
vector 27 RSUExampleCatania.node[5].veinsmobility speed ETV
vector 28 RSUExampleCatania.node[6].veinsmobility posx ETV
vector 29 RSUExampleCatania.node[6].veinsmobility posy ETV
vector 30 RSUExampleCatania.node[7].veinsmobility posx ETV
vector 31 RSUExampleCatania.node[7].veinsmobility posy ETV
vector 32 RSUExampleCatania.node[5].veinsmobility acceleration ETV
vector 33 RSUExampleCatania.node[5].veinsmobility co2emission ETV
vector 34 RSUExampleCatania.node[6].veinsmobility speed ETV
vector 35 RSUExampleCatania.node[7].veinsmobility speed ETV
vector 36 RSUExampleCatania.node[8].veinsmobility posx ETV
vector 37 RSUExampleCatania.node[8].veinsmobility posy ETV
vector 38 RSUExampleCatania.node[6].veinsmobility acceleration ETV
vector 39 RSUExampleCatania.node[6].veinsmobility co2emission ETV
vector 40 RSUExampleCatania.node[7].veinsmobility acceleration ETV
vector 41 RSUExampleCatania.node[7].veinsmobility co2emission ETV
vector 42 RSUExampleCatania.node[9].veinsmobility posx ETV
vector 43 RSUExampleCatania.node[9].veinsmobility posy ETV
vector 44 RSUExampleCatania.node[8].veinsmobility speed ETV
vector 45 RSUExampleCatania.node[8].veinsmobility acceleration ETV
vector 46 RSUExampleCatania.node[8].veinsmobility co2emission ETV
vector 47 RSUExampleCatania.node[9].veinsmobility speed ETV
vector 48 RSUExampleCatania.node[10].veinsmobility posx ETV
vector 49 RSUExampleCatania.node[10].veinsmobility posy ETV
vector 50 RSUExampleCatania.node[11].veinsmobility posx ETV
vector 51 RSUExampleCatania.node[11].veinsmobility posy ETV
vector 52 RSUExampleCatania.node[9].veinsmobility acceleration ETV
vector 53 RSUExampleCatania.node[9].veinsmobility co2emission ETV
vector 54 RSUExampleCatania.node[10].veinsmobility speed ETV
vector 55 RSUExampleCatania.node[11].veinsmobility speed ETV
vector 56 RSUExampleCatania.node[12].veinsmobility posx ETV
vector 57 RSUExampleCatania.node[12].veinsmobility posy ETV
vector 58 RSUExampleCatania.node[10].veinsmobility acceleration ETV
vector 59 RSUExampleCatania.node[10].veinsmobility co2emission ETV
vector 60 RSUExampleCatania.node[11].veinsmobility acceleration ETV
vector 61 RSUExampleCatania.node[11].veinsmobility co2emission ETV
vector 62 RSUExampleCatania.node[13].veinsmobility posx ETV
vector 63 RSUExampleCatania.node[13].veinsmobility posy ETV
vector 64 RSUExampleCatania.node[12].veinsmobility speed ETV
vector 65 RSUExampleCatania.node[12].veinsmobility acceleration ETV
vector 66 RSUExampleCatania.node[12].veinsmobility co2emission ETV
vector 67 RSUExampleCatania.node[13].veinsmobility speed ETV
vector 68 RSUExampleCatania.node[14].veinsmobility posx ETV
vector 69 RSUExampleCatania.node[14].veinsmobility posy ETV
vector 70 RSUExampleCatania.node[13].veinsmobility acceleration ETV
vector 71 RSUExampleCatania.node[13].veinsmobility co2emission ETV
vector 72 RSUExampleCatania.node[15].veinsmobility posx ETV
vector 73 RSUExampleCatania.node[15].veinsmobility posy ETV
vector 74 RSUExampleCatania.node[14].veinsmobility speed ETV
vector 75 RSUExampleCatania.node[16].veinsmobility posx ETV
vector 76 RSUExampleCatania.node[16].veinsmobility posy ETV
vector 77 RSUExampleCatania.node[14].veinsmobility acceleration ETV
vector 78 RSUExampleCatania.node[14].veinsmobility co2emission ETV
vector 79 RSUExampleCatania.node[15].veinsmobility speed ETV
vector 80 RSUExampleCatania.node[15].veinsmobility acceleration ETV
vector 81 RSUExampleCatania.node[15].veinsmobility co2emission ETV
vector 82 RSUExampleCatania.node[16].veinsmobility speed ETV
vector 83 RSUExampleCatania.node[17].veinsmobility posx ETV
vector 84 RSUExampleCatania.node[17].veinsmobility posy ETV
vector 85 RSUExampleCatania.node[18].veinsmobility posx ETV
vector 86 RSUExampleCatania.node[18].veinsmobility posy ETV
vector 87 RSUExampleCatania.node[16].veinsmobility acceleration ETV
vector 88 RSUExampleCatania.node[16].veinsmobility co2emission ETV
vector 89 RSUExampleCatania.node[17].veinsmobility speed ETV
vector 90 RSUExampleCatania.node[18].veinsmobility speed ETV
vector 91 RSUExampleCatania.node[19].veinsmobility posx ETV
vector 92 RSUExampleCatania.node[19].veinsmobility posy ETV
vector 93 RSUExampleCatania.node[17].veinsmobility acceleration ETV
vector 94 RSUExampleCatania.node[17].veinsmobility co2emission ETV
vector 95 RSUExampleCatania.node[18].veinsmobility acceleration ETV
vector 96 RSUExampleCatania.node[18].veinsmobility co2emission ETV
vector 97 RSUExampleCatania.node[20].veinsmobility posx ETV
vector 98 RSUExampleCatania.node[20].veinsmobility posy ETV
vector 99 RSUExampleCatania.node[19].veinsmobility speed ETV
vector 100 RSUExampleCatania.node[19].veinsmobility acceleration ETV
vector 101 RSUExampleCatania.node[19].veinsmobility co2emission ETV
vector 102 RSUExampleCatania.node[20].veinsmobility speed ETV
vector 103 RSUExampleCatania.node[21].veinsmobility posx ETV
vector 104 RSUExampleCatania.node[21].veinsmobility posy ETV
vector 105 RSUExampleCatania.node[20].veinsmobility acceleration ETV
vector 106 RSUExampleCatania.node[20].veinsmobility co2emission ETV
vector 107 RSUExampleCatania.node[22].veinsmobility posx ETV
vector 108 RSUExampleCatania.node[22].veinsmobility posy ETV
vector 109 RSUExampleCatania.node[21].veinsmobility speed ETV
vector 110 RSUExampleCatania.node[21].veinsmobility acceleration ETV
vector 111 RSUExampleCatania.node[21].veinsmobility co2emission ETV
vector 112 RSUExampleCatania.node[22].veinsmobility speed ETV
vector 113 RSUExampleCatania.node[23].veinsmobility posx ETV
vector 114 RSUExampleCatania.node[23].veinsmobility posy ETV
vector 115 RSUExampleCatania.node[22].veinsmobility acceleration ETV
vector 116 RSUExampleCatania.node[22].veinsmobility co2emission ETV
vector 117 RSUExampleCatania.node[24].veinsmobility posx ETV
vector 118 RSUExampleCatania.node[24].veinsmobility posy ETV
vector 119 RSUExampleCatania.node[23].veinsmobility speed ETV
vector 120 RSUExampleCatania.node[23].veinsmobility acceleration ETV
vector 121 RSUExampleCatania.node[23].veinsmobility co2emission ETV
vector 122 RSUExampleCatania.node[24].veinsmobility speed ETV
vector 123 RSUExampleCatania.node[25].veinsmobility posx ETV
vector 124 RSUExampleCatania.node[25].veinsmobility posy ETV
vector 125 RSUExampleCatania.node[26].veinsmobility posx ETV
vector 126 RSUExampleCatania.node[26].veinsmobility posy ETV
vector 127 RSUExampleCatania.node[24].veinsmobility acceleration ETV
vector 128 RSUExampleCatania.node[24].veinsmobility co2emission ETV
vector 129 RSUExampleCatania.node[25].veinsmobility speed ETV
vector 130 RSUExampleCatania.node[26].veinsmobility speed ETV
vector 131 RSUExampleCatania.node[27].veinsmobility posx ETV
vector 132 RSUExampleCatania.node[27].veinsmobility posy ETV
vector 133 RSUExampleCatania.node[25].veinsmobility acceleration ETV
vector 134 RSUExampleCatania.node[25].veinsmobility co2emission ETV
vector 135 RSUExampleCatania.node[26].veinsmobility acceleration ETV
vector 136 RSUExampleCatania.node[26].veinsmobility co2emission ETV
vector 137 RSUExampleCatania.node[28].veinsmobility posx ETV
vector 138 RSUExampleCatania.node[28].veinsmobility posy ETV
vector 139 RSUExampleCatania.node[27].veinsmobility speed ETV
vector 140 RSUExampleCatania.node[27].veinsmobility acceleration ETV
vector 141 RSUExampleCatania.node[27].veinsmobility co2emission ETV
vector 142 RSUExampleCatania.node[28].veinsmobility speed ETV
vector 143 RSUExampleCatania.node[29].veinsmobility posx ETV
vector 144 RSUExampleCatania.node[29].veinsmobility posy ETV
vector 145 RSUExampleCatania.node[30].veinsmobility posx ETV
vector 146 RSUExampleCatania.node[30].veinsmobility posy ETV
vector 147 RSUExampleCatania.node[28].veinsmobility acceleration ETV
vector 148 RSUExampleCatania.node[28].veinsmobility co2emission ETV
vector 149 RSUExampleCatania.node[29].veinsmobility speed ETV
vector 150 RSUExampleCatania.node[30].veinsmobility speed ETV
vector 151 RSUExampleCatania.node[31].veinsmobility posx ETV
vector 152 RSUExampleCatania.node[31].veinsmobility posy ETV
vector 153 RSUExampleCatania.node[29].veinsmobility acceleration ETV
vector 154 RSUExampleCatania.node[29].veinsmobility co2emission ETV
vector 155 RSUExampleCatania.node[30].veinsmobility acceleration ETV
vector 156 RSUExampleCatania.node[30].veinsmobility co2emission ETV
vector 157 RSUExampleCatania.node[32].veinsmobility posx ETV
vector 158 RSUExampleCatania.node[32].veinsmobility posy ETV
vector 159 RSUExampleCatania.node[31].veinsmobility speed ETV
vector 160 RSUExampleCatania.node[31].veinsmobility acceleration ETV
vector 161 RSUExampleCatania.node[31].veinsmobility co2emission ETV
vector 162 RSUExampleCatania.node[32].veinsmobility speed ETV
vector 163 RSUExampleCatania.node[33].veinsmobility posx ETV
vector 164 RSUExampleCatania.node[33].veinsmobility posy ETV
vector 165 RSUExampleCatania.node[34].veinsmobility posx ETV
vector 166 RSUExampleCatania.node[34].veinsmobility posy ETV
vector 167 RSUExampleCatania.node[32].veinsmobility acceleration ETV
vector 168 RSUExampleCatania.node[32].veinsmobility co2emission ETV
vector 169 RSUExampleCatania.node[33].veinsmobility speed ETV
vector 170 RSUExampleCatania.node[34].veinsmobility speed ETV
vector 171 RSUExampleCatania.node[33].veinsmobility acceleration ETV
vector 172 RSUExampleCatania.node[33].veinsmobility co2emission ETV
vector 173 RSUExampleCatania.node[34].veinsmobility acceleration ETV
vector 174 RSUExampleCatania.node[34].veinsmobility co2emission ETV
vector 175 RSUExampleCatania.node[35].veinsmobility posx ETV
vector 176 RSUExampleCatania.node[35].veinsmobility posy ETV
vector 177 RSUExampleCatania.node[36].veinsmobility posx ETV
vector 178 RSUExampleCatania.node[36].veinsmobility posy ETV
vector 179 RSUExampleCatania.node[35].veinsmobility speed ETV
vector 180 RSUExampleCatania.node[36].veinsmobility speed ETV
vector 181 RSUExampleCatania.node[37].veinsmobility posx ETV
vector 182 RSUExampleCatania.node[37].veinsmobility posy ETV
vector 183 RSUExampleCatania.node[38].veinsmobility posx ETV
vector 184 RSUExampleCatania.node[38].veinsmobility posy ETV
vector 185 RSUExampleCatania.node[35].veinsmobility acceleration ETV
vector 186 RSUExampleCatania.node[35].veinsmobility co2emission ETV
vector 187 RSUExampleCatania.node[36].veinsmobility acceleration ETV
vector 188 RSUExampleCatania.node[36].veinsmobility co2emission ETV
vector 189 RSUExampleCatania.node[37].veinsmobility speed ETV
vector 190 RSUExampleCatania.node[38].veinsmobility speed ETV
vector 191 RSUExampleCatania.node[39].veinsmobility posx ETV
vector 192 RSUExampleCatania.node[39].veinsmobility posy ETV
vector 193 RSUExampleCatania.node[37].veinsmobility acceleration ETV
vector 194 RSUExampleCatania.node[37].veinsmobility co2emission ETV
vector 195 RSUExampleCatania.node[38].veinsmobility acceleration ETV
vector 196 RSUExampleCatania.node[38].veinsmobility co2emission ETV
vector 197 RSUExampleCatania.node[40].veinsmobility posx ETV
vector 198 RSUExampleCatania.node[40].veinsmobility posy ETV
vector 199 RSUExampleCatania.node[39].veinsmobility speed ETV
vector 200 RSUExampleCatania.node[39].veinsmobility acceleration ETV
vector 201 RSUExampleCatania.node[39].veinsmobility co2emission ETV
vector 202 RSUExampleCatania.node[40].veinsmobility speed ETV
vector 203 RSUExampleCatania.node[41].veinsmobility posx ETV
vector 204 RSUExampleCatania.node[41].veinsmobility posy ETV
vector 205 RSUExampleCatania.node[42].veinsmobility posx ETV
vector 206 RSUExampleCatania.node[42].veinsmobility posy ETV
vector 207 RSUExampleCatania.node[40].veinsmobility acceleration ETV
vector 208 RSUExampleCatania.node[40].veinsmobility co2emission ETV
vector 209 RSUExampleCatania.node[41].veinsmobility speed ETV
vector 210 RSUExampleCatania.node[42].veinsmobility speed ETV
vector 211 RSUExampleCatania.node[41].veinsmobility acceleration ETV
vector 212 RSUExampleCatania.node[41].veinsmobility co2emission ETV
vector 213 RSUExampleCatania.node[42].veinsmobility acceleration ETV
vector 214 RSUExampleCatania.node[42].veinsmobility co2emission ETV
vector 215 RSUExampleCatania.node[43].veinsmobility posx ETV
vector 216 RSUExampleCatania.node[43].veinsmobility posy ETV
vector 217 RSUExampleCatania.node[44].veinsmobility posx ETV
vector 218 RSUExampleCatania.node[44].veinsmobility posy ETV
vector 219 RSUExampleCatania.node[43].veinsmobility speed ETV
vector 220 RSUExampleCatania.node[44].veinsmobility speed ETV
vector 221 RSUExampleCatania.node[45].veinsmobility posx ETV
vector 222 RSUExampleCatania.node[45].veinsmobility posy ETV
vector 223 RSUExampleCatania.node[46].veinsmobility posx ETV
vector 224 RSUExampleCatania.node[46].veinsmobility posy ETV
vector 225 RSUExampleCatania.node[43].veinsmobility acceleration ETV
vector 226 RSUExampleCatania.node[43].veinsmobility co2emission ETV
vector 227 RSUExampleCatania.node[44].veinsmobility acceleration ETV
vector 228 RSUExampleCatania.node[44].veinsmobility co2emission ETV
vector 229 RSUExampleCatania.node[45].veinsmobility speed ETV
vector 230 RSUExampleCatania.node[46].veinsmobility speed ETV
vector 231 RSUExampleCatania.node[45].veinsmobility acceleration ETV
vector 232 RSUExampleCatania.node[45].veinsmobility co2emission ETV
vector 233 RSUExampleCatania.node[46].veinsmobility acceleration ETV
vector 234 RSUExampleCatania.node[46].veinsmobility co2emission ETV
vector 235 RSUExampleCatania.node[47].veinsmobility posx ETV
vector 236 RSUExampleCatania.node[47].veinsmobility posy ETV
vector 237 RSUExampleCatania.node[48].veinsmobility posx ETV
vector 238 RSUExampleCatania.node[48].veinsmobility posy ETV
vector 239 RSUExampleCatania.node[47].veinsmobility speed ETV
vector 240 RSUExampleCatania.node[48].veinsmobility speed ETV
vector 241 RSUExampleCatania.node[49].veinsmobility posx ETV
vector 242 RSUExampleCatania.node[49].veinsmobility posy ETV
vector 243 RSUExampleCatania.node[47].veinsmobility acceleration ETV
vector 244 RSUExampleCatania.node[47].veinsmobility co2emission ETV
vector 245 RSUExampleCatania.node[48].veinsmobility acceleration ETV
vector 246 RSUExampleCatania.node[48].veinsmobility co2emission ETV
vector 247 RSUExampleCatania.node[50].veinsmobility posx ETV
vector 248 RSUExampleCatania.node[50].veinsmobility posy ETV
vector 249 RSUExampleCatania.node[49].veinsmobility speed ETV
vector 250 RSUExampleCatania.node[49].veinsmobility acceleration ETV
vector 251 RSUExampleCatania.node[49].veinsmobility co2emission ETV
vector 252 RSUExampleCatania.node[50].veinsmobility speed ETV
vector 253 RSUExampleCatania.node[51].veinsmobility posx ETV
vector 254 RSUExampleCatania.node[51].veinsmobility posy ETV
vector 255 RSUExampleCatania.node[52].veinsmobility posx ETV
vector 256 RSUExampleCatania.node[52].veinsmobility posy ETV
vector 257 RSUExampleCatania.node[50].veinsmobility acceleration ETV
vector 258 RSUExampleCatania.node[50].veinsmobility co2emission ETV
vector 259 RSUExampleCatania.node[51].veinsmobility speed ETV
vector 260 RSUExampleCatania.node[52].veinsmobility speed ETV
vector 261 RSUExampleCatania.node[51].veinsmobility acceleration ETV
vector 262 RSUExampleCatania.node[51].veinsmobility co2emission ETV
vector 263 RSUExampleCatania.node[52].veinsmobility acceleration ETV
vector 264 RSUExampleCatania.node[52].veinsmobility co2emission ETV
vector 265 RSUExampleCatania.node[53].veinsmobility posx ETV
vector 266 RSUExampleCatania.node[53].veinsmobility posy ETV
vector 267 RSUExampleCatania.node[54].veinsmobility posx ETV
vector 268 RSUExampleCatania.node[54].veinsmobility posy ETV
vector 269 RSUExampleCatania.node[53].veinsmobility speed ETV
vector 270 RSUExampleCatania.node[54].veinsmobility speed ETV
vector 271 RSUExampleCatania.node[55].veinsmobility posx ETV
vector 272 RSUExampleCatania.node[55].veinsmobility posy ETV
vector 273 RSUExampleCatania.node[53].veinsmobility acceleration ETV
vector 274 RSUExampleCatania.node[53].veinsmobility co2emission ETV
vector 275 RSUExampleCatania.node[54].veinsmobility acceleration ETV
vector 276 RSUExampleCatania.node[54].veinsmobility co2emission ETV
vector 277 RSUExampleCatania.node[56].veinsmobility posx ETV
vector 278 RSUExampleCatania.node[56].veinsmobility posy ETV
vector 279 RSUExampleCatania.node[55].veinsmobility speed ETV
vector 280 RSUExampleCatania.node[57].veinsmobility posx ETV
vector 281 RSUExampleCatania.node[57].veinsmobility posy ETV
vector 282 RSUExampleCatania.node[55].veinsmobility acceleration ETV
vector 283 RSUExampleCatania.node[55].veinsmobility co2emission ETV
vector 284 RSUExampleCatania.node[56].veinsmobility speed ETV
vector 285 RSUExampleCatania.node[58].veinsmobility posx ETV
vector 286 RSUExampleCatania.node[58].veinsmobility posy ETV
vector 287 RSUExampleCatania.node[56].veinsmobility acceleration ETV
vector 288 RSUExampleCatania.node[56].veinsmobility co2emission ETV
vector 289 RSUExampleCatania.node[57].veinsmobility speed ETV
vector 290 RSUExampleCatania.node[57].veinsmobility acceleration ETV
vector 291 RSUExampleCatania.node[57].veinsmobility co2emission ETV
vector 292 RSUExampleCatania.node[58].veinsmobility speed ETV
vector 293 RSUExampleCatania.node[59].veinsmobility posx ETV
vector 294 RSUExampleCatania.node[59].veinsmobility posy ETV
vector 295 RSUExampleCatania.node[58].veinsmobility acceleration ETV
vector 296 RSUExampleCatania.node[58].veinsmobility co2emission ETV
vector 297 RSUExampleCatania.node[60].veinsmobility posx ETV
vector 298 RSUExampleCatania.node[60].veinsmobility posy ETV
vector 299 RSUExampleCatania.node[59].veinsmobility speed ETV
vector 300 RSUExampleCatania.node[59].veinsmobility acceleration ETV
vector 301 RSUExampleCatania.node[59].veinsmobility co2emission ETV
vector 302 RSUExampleCatania.node[60].veinsmobility speed ETV
vector 303 RSUExampleCatania.node[61].veinsmobility posx ETV
vector 304 RSUExampleCatania.node[61].veinsmobility posy ETV
vector 305 RSUExampleCatania.node[62].veinsmobility posx ETV
vector 306 RSUExampleCatania.node[62].veinsmobility posy ETV
vector 307 RSUExampleCatania.node[60].veinsmobility acceleration ETV
vector 308 RSUExampleCatania.node[60].veinsmobility co2emission ETV
vector 309 RSUExampleCatania.node[61].veinsmobility speed ETV
vector 310 RSUExampleCatania.node[62].veinsmobility speed ETV
vector 311 RSUExampleCatania.node[61].veinsmobility acceleration ETV
vector 312 RSUExampleCatania.node[61].veinsmobility co2emission ETV
vector 313 RSUExampleCatania.node[62].veinsmobility acceleration ETV
vector 314 RSUExampleCatania.node[62].veinsmobility co2emission ETV
vector 315 RSUExampleCatania.node[63].veinsmobility posx ETV
vector 316 RSUExampleCatania.node[63].veinsmobility posy ETV
vector 317 RSUExampleCatania.node[64].veinsmobility posx ETV
vector 318 RSUExampleCatania.node[64].veinsmobility posy ETV
vector 319 RSUExampleCatania.node[63].veinsmobility speed ETV
vector 320 RSUExampleCatania.node[64].veinsmobility speed ETV
vector 321 RSUExampleCatania.node[65].veinsmobility posx ETV
vector 322 RSUExampleCatania.node[65].veinsmobility posy ETV
vector 323 RSUExampleCatania.node[66].veinsmobility posx ETV
vector 324 RSUExampleCatania.node[66].veinsmobility posy ETV
vector 325 RSUExampleCatania.node[63].veinsmobility acceleration ETV
vector 326 RSUExampleCatania.node[63].veinsmobility co2emission ETV
vector 327 RSUExampleCatania.node[64].veinsmobility acceleration ETV
vector 328 RSUExampleCatania.node[64].veinsmobility co2emission ETV
vector 329 RSUExampleCatania.node[65].veinsmobility speed ETV
vector 330 RSUExampleCatania.node[66].veinsmobility speed ETV
vector 331 RSUExampleCatania.node[65].veinsmobility acceleration ETV
vector 332 RSUExampleCatania.node[65].veinsmobility co2emission ETV
vector 333 RSUExampleCatania.node[66].veinsmobility acceleration ETV
vector 334 RSUExampleCatania.node[66].veinsmobility co2emission ETV
vector 335 RSUExampleCatania.node[67].veinsmobility posx ETV
vector 336 RSUExampleCatania.node[67].veinsmobility posy ETV
vector 337 RSUExampleCatania.node[67].veinsmobility speed ETV
vector 338 RSUExampleCatania.node[67].veinsmobility acceleration ETV
vector 339 RSUExampleCatania.node[67].veinsmobility co2emission ETV
vector 340 RSUExampleCatania.node[68].veinsmobility posx ETV
vector 341 RSUExampleCatania.node[68].veinsmobility posy ETV
vector 342 RSUExampleCatania.node[68].veinsmobility speed ETV
vector 343 RSUExampleCatania.node[69].veinsmobility posx ETV
vector 344 RSUExampleCatania.node[69].veinsmobility posy ETV
vector 345 RSUExampleCatania.node[68].veinsmobility acceleration ETV
vector 346 RSUExampleCatania.node[68].veinsmobility co2emission ETV
vector 347 RSUExampleCatania.node[69].veinsmobility speed ETV
vector 348 RSUExampleCatania.node[69].veinsmobility acceleration ETV
vector 349 RSUExampleCatania.node[69].veinsmobility co2emission ETV
13	116	3	3.6211086383691
13	256	4	3.5288866095716
13	397	5	6.0192938043615
13	600	6	7.3221686285292
13	874	7	5.6851206126511
13	1153	8	6.7123948090755
13	1608	9	8.0121026982828
13	2062	10	2.8786236848779
13	2630	11	0.973
13	3320	12	2.4639111633826
13	4011	13	2.1363807014502
13	4978	14	6.2441872196306
13	5954	15	1.3181220627517
13	7086	16	0.973
13	8379	17	0.973
13	9629	18	0.973
13	11046	19	0.973
13	12604	20	5.3354728506996
13	14360	21	7.2754308369501
13	16055	22	5.3241661186203
13	18181	23	10.128515192619
13	20288	24	9.4948510382706
13	22546	25	2.6268824844312
13	25133	26	0.973
13	27618	27	5.4074798596568
13	30283	28	0.973
13	33176	29	4.7133185848509
13	35991	30	0.973
13	39113	31	5.458799211366
13	42333	32	2.3997966021049
13	45573	33	0.973
13	49357	34	1.5235855239862
13	53059	35	3.1967596112433
13	57156	36	1.681029437184
13	61405	37	1.0408488466082
13	65805	38	5.1891398118458
13	70688	39	0.973
13	75533	40	2.4422640038556
13	80695	41	0.973
13	86023	42	3.3594216565063
13	91457	43	2.499103201455
13	97520	44	1.4402746233224
13	103494	45	0.973
13	109532	46	0.973
13	116203	47	0.973
13	122875	48	6.4762894883978
13	130172	49	6.0701439284701
13	137436	50	7.4856325740282
13	145057	51	11.002738333924
13	152953	52	2.5008181592089
13	160953	53	0.973
13	169671	54	0.973
13	178285	55	0.973
13	186904	56	6.9669499098805
13	196304	57	5.619956946346
13	205739	58	5.5859759247539
13	215964	59	9.3921090057306
13	226334	60	6.8519327485804
13	236729	61	4.0773897587624
13	247863	62	1.9932566369429
13	259118	63	0.973
13	270778	64	2.9691774549828
13	282693	65	3.6672263871303
13	294763	66	1.8028956381726
13	307788	67	2.9834132787789
13	320690	68	0.973
13	333651	69	3.3330168151278
13	347684	70	0.973
13	361617	71	3.8621601955268
13	376002	72	1.0627722183775
13	390813	73	2.105263518146
13	406218	74	2.5481418798799
13	421858	75	3.1712831617698
13	437712	76	0.973
13	454131	77	3.9111376285952
13	471142	78	1.9165857361462
13	488147	79	2.7911225355888
13	506157	80	1.8320546820412
13	524220	81	0.973
13	542472	82	2.1056472873186
13	561686	83	5.5220890768048
13	580950	84	2.1193989436585
13	601219	85	1.8820656006421
13	622026	86	0.973
13	642593	87	3.0718197169222
13	673044	88	1.4990013803787
13	694378	89	3.5015891648645
13	718153	90	2.0141835735374
13	739983	91	0.973
13	763741	92	0.973
13	785982	93	2.233756214861
13	808332	94	5.0948095933046
13	831257	95	5.9223863161117
13	853761	96	8.2724907154639
13	876504	97	5.6117461045943
13	899281	98	3.3707903962971
13	921831	99	2.2364936350284
13	944749	100	4.9948475666068
13	967452	101	1.6734524109958
13	990228	102	0.973
13	1013595	103	4.5446430634265
13	1036534	104	0.973
13	1059491	105	2.2894335585208
13	1082566	106	4.5868306559591
13	1105643	107	1.3270608150523
13	1128650	108	1.6347879309912
13	1151632	109	2.8358447010411
13	1174669	110	0.973
13	1197710	111	3.3667865253054
13	1220912	112	2.3336652006208
13	1244025	113	2.0260985693936
13	1266807	114	1.3286821347567
13	1289300	115	2.2688227308496
13	1311922	116	1.5781618888605
13	1334430	117	2.2939595829399
13	1356533	118	3.5380465013971
13	1378366	119	2.1689588554994
13	1400236	120	4.1846409373622
13	1422004	121	0.973
12	116	3	2.045571109117
12	256	4	1.4409547501011
12	397	5	2.2296804808313
12	600	6	2.2113307103515
12	874	7	1.3476690129843
12	1153	8	1.4758764983155
12	1608	9	1.6288404532243
12	2062	10	0.1961127044633
12	2630	11	-0.31401656202506
12	3320	12	0.090674749412575
12	4011	13	-0.00034300375264174
12	4978	14	1.0364330671029
12	5954	15	-0.24004845684394
12	7086	16	-0.52994646581356
12	8379	17	-0.864171496931
12	9629	18	-4.5
12	11046	19	-4.4965737238759
12	12604	20	2.1277886533644
12	14360	21	2.3656493975548
12	16055	22	1.3205505888676
12	18181	23	2.475277706515
12	20288	24	1.9419912328138
12	22546	25	0.1072352380259
12	25133	26	-0.55854384021368
12	27618	27	0.82140220445581
12	30283	28	-0.97571109118871
12	33176	29	0.66321087281685
12	35991	30	-0.50795226907358
12	39113	31	0.83366464392748
12	42333	32	0.036643777950667
12	45573	33	-0.46031292839907
12	49357	34	-0.1786376400385
12	53059	35	0.26118318298832
12	57156	36	-0.13873934103176
12	61405	37	-0.30721754173283
12	65805	38	0.76523482063785
12	70688	39	-0.57099105361849
12	75533	40	0.067047476908192
12	80695	41	-0.50556534042116
12	86023	42	0.32316650568973
12	91457	43	0.085831016348674
12	97520	44	-0.19733900704887
12	103494	45	-1.455842858391
12	109532	46	-3.8536958388519
12	116203	47	-3.3744680715259
12	122875	48	2.312641028408
12	130172	49	1.7215491539333
12	137436	50	1.8813314346597
12	145057	51	2.4809766275575
12	152953	52	0.10044131639983
12	160953	53	-0.57464664137728
12	169671	54	-3.9374147676087
12	178285	55	-4.3736546673113
12	186904	56	2.5836772234179
12	196304	57	1.5889868666884
12	205739	58	1.3519775079098
12	215964	59	2.2172360560158
12	226334	60	1.291366220973
12	236729	61	0.49663096896838
12	247863	62	-0.056638567941263
12	259118	63	-0.5539619022049
12	270778	64	0.21899665528908
12	282693	65	0.38766343914904
12	294763	66	-0.1062216852326
12	307788	67	0.20141485559289
12	320690	68	-0.3740668901708
12	333651	69	0.29773242918309
12	347684	70	-0.86373946338426
12	361617	71	0.46251390720717
12	376002	72	-0.29844427828211
12	390813	73	-0.0079400666756566
12	406218	74	0.11119513537269
12	421858	75	0.27028325439897
12	437712	76	-0.38040966631379
12	454131	77	0.46600257714745
12	471142	78	-0.070908038364722
12	488147	79	0.1598093097331
12	506157	80	-0.095424757362343
12	524220	81	-0.60637195322197
12	542472	82	-0.0033327807439498
12	561686	83	0.8780589689035
12	580950	84	-0.024921574769541
12	601219	85	-0.0858932309784
12	622026	86	-0.51929155290127
12	642593	87	0.24502377028111
12	673044	88	-0.17989625483751
12	694378	89	0.35271583783906
12	718153	90	-0.046474669221787
12	739983	91	-2.2332454615103
12	763741	92	-4.3219768224284
12	785982	93	0.28109198436141
12	808332	94	1.3428612101357
12	831257	95	1.4291921088938
12	853761	96	1.8885980707826
12	876504	97	0.98425113775931
12	899281	98	0.33522886713035
12	921831	99	0.022213321202434
12	944749	100	0.72314404691569
12	967452	101	-0.14510896608699
12	990228	102	-0.95423464404885
12	1013595	103	0.63764382330701
12	1036534	104	-0.41119089208077
12	1059491	105	0.040394762950017
12	1082566	106	0.63034506861586
12	1105643	107	-0.23230166092981
12	1128650	108	-0.1462141007185
12	1151632	109	0.17356132688001
12	1174669	110	-0.39774333059322
12	1197710	111	0.32050646750722
12	1220912	112	0.039584376732819
12	1244025	113	-0.042261812044307
12	1266807	114	-0.22749779352453
12	1289300	115	0.029845552193001
12	1311922	116	-0.15640343423001
12	1334430	117	0.04058137293905
12	1356533	118	0.36423566595186
12	1378366	119	-0.004983671032825
12	1400236	120	0.50647894954309
12	1422004	121	-1.0383943361929
5	63	2	2.5772626519203
5	116	3	4.6228337610373
5	256	4	6.0637885111384
5	397	5	8.2934689919697
5	600	6	10.504799702321
5	874	7	11.852468715305
5	1153	8	13.328345213621
5	1608	9	14.957185666845
5	2062	10	15.153298371308
5	2630	11	14.839281809283
5	3320	12	14.929956558696
5	4011	13	14.929613554943
5	4978	14	15.966046622046
5	5954	15	15.725998165202
5	7086	16	15.196051699389
5	8379	17	14.331880202458
5	9629	18	9.8318802024578
5	11046	19	5.3353064785819
5	12604	20	7.4630951319463
5	14360	21	9.8287445295011
5	16055	22	11.149295118369
5	18181	23	13.624572824884
5	20288	24	15.566564057698
5	22546	25	15.673799295723
5	25133	26	15.11525545551
5	27618	27	15.936657659966
5	30283	28	14.960946568777
5	33176	29	15.624157441594
5	35991	30	15.11620517252
5	39113	31	15.949869816448
5	42333	32	15.986513594398
5	45573	33	15.526200665999
5	49357	34	15.347563025961
5	53059	35	15.608746208949
5	57156	36	15.470006867917
5	61405	37	15.162789326184
5	65805	38	15.928024146822
5	70688	39	15.357033093204
5	75533	40	15.424080570112
5	80695	41	14.918515229691
5	86023	42	15.241681735381
5	91457	43	15.327512751729
5	97520	44	15.13017374468
5	103494	45	13.674330886289
5	109532	46	9.8206350474375
5	116203	47	6.4461669759116
5	122875	48	8.7588080043196
5	130172	49	10.480357158253
5	137436	50	12.361688592913
5	145057	51	14.84266522047
5	152953	52	14.94310653687
5	160953	53	14.368459895493
5	169671	54	10.431045127884
5	178285	55	6.0573904605726
5	186904	56	8.6410676839905
5	196304	57	10.230054550679
5	205739	58	11.582032058589
5	215964	59	13.799268114604
5	226334	60	15.090634335577
5	236729	61	15.587265304546
5	247863	62	15.530626736605
5	259118	63	14.9766648344
5	270778	64	15.195661489689
5	282693	65	15.583324928838
5	294763	66	15.477103243605
5	307788	67	15.678518099198
5	320690	68	15.304451209027
5	333651	69	15.60218363821
5	347684	70	14.738444174826
5	361617	71	15.200958082033
5	376002	72	14.902513803751
5	390813	73	14.894573737076
5	406218	74	15.005768872448
5	421858	75	15.276052126847
5	437712	76	14.895642460533
5	454131	77	15.361645037681
5	471142	78	15.290736999316
5	488147	79	15.450546309049
5	506157	80	15.355121551687
5	524220	81	14.748749598465
5	542472	82	14.745416817721
5	561686	83	15.623475786624
5	580950	84	15.598554211855
5	601219	85	15.512660980877
5	622026	86	14.993369427975
5	642593	87	15.238393198256
5	673044	88	15.058496943419
5	694378	89	15.411212781258
5	718153	90	15.364738112036
5	739983	91	13.131492650526
5	763741	92	8.8095158280975
5	785982	93	9.0906078124589
5	808332	94	10.433469022595
5	831257	95	11.862661131488
5	853761	96	13.751259202271
5	876504	97	14.73551034003
5	899281	98	15.070739207161
5	921831	99	15.092952528363
5	944749	100	15.816096575279
5	967452	101	15.670987609192
5	990228	102	14.716752965143
5	1013595	103	15.35439678845
5	1036534	104	14.943205896369
5	1059491	105	14.983600659319
5	1082566	106	15.613945727935
5	1105643	107	15.381644067005
5	1128650	108	15.235429966287
5	1151632	109	15.408991293167
5	1174669	110	15.011247962574
5	1197710	111	15.331754430081
5	1220912	112	15.371338806814
5	1244025	113	15.329076994769
5	1266807	114	15.101579201245
5	1289300	115	15.131424753438
5	1311922	116	14.975021319208
5	1334430	117	15.015602692147
5	1356533	118	15.379838358099
5	1378366	119	15.374854687066
5	1400236	120	15.881333636609
5	1422004	121	14.842939300416
3	11	1	916.51891571645
3	63	2	916.51891571645
3	116	3	918.47061300137
3	256	4	921.8763280193
3	397	5	926.26255401741
3	600	6	932.26161372082
3	874	7	939.8602338697
3	1153	8	948.43368697174
3	1608	9	958.07471158538
3	2062	10	970.27217770217
3	2630	11	984.57665842483
3	3320	12	998.95613316112
3	4011	13	1013.7948051396
3	4978	14	1028.6331362116
3	5954	15	1044.5015634027
3	7086	16	1060.1317543534
3	8379	17	1075.2092595343
3	9629	18	1089.2980969161
3	11046	19	1098.945946605
3	12604	20	1104.0829962401
3	14360	21	1111.2995195704
3	16055	22	1120.5552075005
3	18181	23	1130.9588753832
3	20288	24	1143.5840837234
3	22546	25	1158.4164150915
3	25133	26	1173.2539655169
3	27618	27	1185.4526155958
3	30283	28	1196.9740496074
3	33176	29	1204.9139442036
3	35991	30	1208.419275102
3	39113	31	1211.9639479607
3	42333	32	1216.2067120776
3	45573	33	1220.2899288199
3	49357	34	1223.9239638365
3	53059	35	1227.648047886
3	57156	36	1232.0726429453
3	61405	37	1236.5532417087
3	65805	38	1240.9448606448
3	70688	39	1244.7621487201
3	75533	40	1248.3503220078
3	80695	41	1251.9541609493
3	86023	42	1255.4398744666
3	91457	43	1259.4727967581
3	97520	44	1264.6023241847
3	103494	45	1269.6658098558
3	109532	46	1273.9229379185
3	116203	47	1276.9065599965
3	122875	48	1278.8649797947
3	130172	49	1281.5050741398
3	137436	50	1284.6421114794
3	145057	51	1288.4045467781
3	152953	52	1292.9386783098
3	160953	53	1297.5034926152
3	169671	54	1301.9167990262
3	178285	55	1305.1396924758
3	186904	56	1307.0112522091
3	196304	57	1309.7076610753
3	205739	58	1312.9196400524
3	215964	59	1316.592326967
3	226334	60	1320.9681041345
3	236729	61	1325.7533762678
3	247863	62	1330.696131134
3	259118	63	1335.5757937534
3	270778	64	1340.3488601514
3	282693	65	1345.1917208319
3	294763	66	1350.1581299363
3	307788	67	1355.0906861662
3	320690	68	1360.087433355
3	333651	69	1365.0893717784
3	347684	70	1370.6020703659
3	361617	71	1375.809585049
3	376002	72	1381.1918107626
3	390813	73	1386.8523009713
3	406218	74	1392.9137766826
3	421858	75	1400.3439043112
3	437712	76	1408.06878574
3	454131	77	1415.5017040514
3	471142	78	1423.1671574212
3	488147	79	1430.8114963611
3	506157	80	1438.595657313
3	524220	81	1446.3369001466
3	542472	82	1453.7724422067
3	561686	83	1461.1000709419
3	580950	84	1468.158093055
3	601219	85	1474.6506126045
3	622026	86	1477.4780942495
3	642593	87	1482.7411370308
3	673044	88	1486.6472487654
3	694378	89	1489.5568945349
3	718153	90	1495.4373310435
3	739983	91	1501.8539071374
3	763741	92	1508.1474176214
3	785982	93	1513.5879166389
3	808332	94	1520.9532655058
3	831257	95	1526.4847895991
3	853761	96	1533.2342756251
3	876504	97	1541.885175955
3	899281	98	1551.5928850543
3	921831	99	1561.5214419049
3	944749	100	1569.5925356599
3	967452	101	1576.6668448177
3	990228	102	1586.9574822629
3	1013595	103	1594.0943322557
3	1036534	104	1601.5404059153
3	1059491	105	1608.7436560062
3	1082566	106	1615.4677291793
3	1105643	107	1621.8658613029
3	1128650	108	1627.3091663948
3	1151632	109	1632.3989503977
3	1174669	110	1637.1431498265
3	1197710	111	1641.7648899946
3	1220912	112	1646.1860477196
3	1244025	113	1649.5902344215
3	1266807	114	1652.3310799969
3	1289300	115	1655.0312488688
3	1311922	116	1657.6330001086
3	1334430	117	1659.9209286695
3	1356533	118	1662.2022996882
3	1378366	119	1664.1390817487
3	1400236	120	1664.7858240445
3	1422004	121	1665.477083995
2	11	1	1593.3739804024
2	63	2	1593.3739804024
2	116	3	1591.6432299799
2	256	4	1588.4367752649
2	397	5	1584.1438514093
2	600	6	1578.2724014378
2	874	7	1570.8354162664
2	1153	8	1562.4443344201
2	1608	9	1553.0083900402
2	2062	10	1544.2581665735
2	2630	11	1540.9992183105
2	3320	12	1541.9586414031
2	4011	13	1543.1355249624
2	4978	14	1544.3123814837
2	5954	15	1545.5709369056
2	7086	16	1546.8062071033
2	8379	17	1548.2922281726
2	9629	18	1549.3198678349
2	11046	19	1549.5867757553
2	12604	20	1548.5578185242
2	14360	21	1547.3199321166
2	16055	22	1544.6271622556
2	18181	23	1540.4910453827
2	20288	24	1535.2200558541
2	22546	25	1530.4806499576
2	25133	26	1526.9000579773
2	27618	27	1518.7930394742
2	30283	28	1508.1717203467
2	33176	29	1495.9921049269
2	35991	30	1481.0237270204
2	39113	31	1466.4801447421
2	42333	32	1451.1506057309
2	45573	33	1435.7440382938
2	49357	34	1420.6948026099
2	53059	35	1405.7970438982
2	57156	36	1390.8858033826
2	61405	37	1376.2320710706
2	65805	38	1361.8693459738
2	70688	39	1346.3703974843
2	75533	40	1331.3793711381
2	80695	41	1316.3228952688
2	86023	42	1301.7599355163
2	91457	43	1287.0272545307
2	97520	44	1272.5434140736
2	103494	45	1258.2460504926
2	109532	46	1245.2171672171
2	116203	47	1235.835296226
2	122875	48	1229.6771296041
2	130172	49	1221.3201769581
2	137436	50	1211.3211035181
2	145057	51	1199.5417718291
2	152953	52	1185.4035816366
2	160953	53	1171.1697173576
2	169671	54	1157.4909820266
2	178285	55	1147.5667781563
2	186904	56	1141.8037144252
2	196304	57	1133.5924332692
2	205739	58	1123.8757549296
2	215964	59	1112.8789013019
2	226334	60	1099.7768367541
2	236729	61	1085.4486518468
2	247863	62	1070.64892809
2	259118	63	1055.888027172
2	270778	64	1041.6760693591
2	282693	65	1027.2562968385
2	294763	66	1012.4686549355
2	307788	67	997.78181104897
2	320690	68	982.90383652944
2	333651	69	968.42516905696
2	347684	70	953.81219348681
2	361617	71	940.008194658
2	376002	72	925.77545043606
2	390813	73	911.97325391984
2	406218	74	898.3562431401
2	421858	75	885.31502791039
2	437712	76	872.11849500711
2	454131	77	859.19222992839
2	471142	78	845.86157323946
2	488147	79	832.59704644094
2	506157	80	819.21392531956
2	524220	81	805.91521620961
2	542472	82	793.1416715662
2	561686	83	780.3131323174
2	580950	84	766.33860878114
2	601219	85	752.11901398105
2	622026	86	737.54081365483
2	642593	87	723.47039771918
2	673044	88	708.72950113324
2	694378	89	693.94447548326
2	718153	90	679.66750721207
2	739983	91	665.68691310565
2	763741	92	654.13598389777
2	785982	93	648.59126437548
2	808332	94	644.68100616464
2	831257	95	635.6985212027
2	853761	96	625.80081697175
2	876504	97	614.92397403476
2	899281	98	603.62203704825
2	921831	99	592.06298405794
2	944749	100	579.25610687725
2	967452	101	564.91106594462
2	990228	102	552.59528694949
2	1013595	103	539.68682630961
2	1036534	104	526.21907108792
2	1059491	105	513.0890750244
2	1082566	106	499.66167593917
2	1105643	107	485.3801310203
2	1128650	108	471.07953531664
2	1151632	109	456.67469757197
2	1174669	110	442.06837679235
2	1197710	111	427.83908047618
2	1220912	112	413.22138411044
2	1244025	113	398.28882319963
2	1266807	114	383.25886023433
2	1289300	115	368.45195593151
2	1311922	116	353.61146500547
2	1334430	117	338.80809733933
2	1356533	118	323.96243202722
2	1378366	119	308.71560948745
2	1400236	120	293.34990459787
2	1422004	121	277.47903785261
21	397	5	2.8122699009343
21	600	6	5.0862690851066
21	874	7	5.9487778483656
21	1153	8	6.6279386244935
21	1608	9	7.4218667348133
21	2062	10	10.782576469163
21	2630	11	3.5304986782672
21	3320	12	1.9949490568056
21	4011	13	1.2780606902575
21	4978	14	6.2063643817888
21	5954	15	0.973
21	7086	16	0.973
21	8379	17	3.080559401636
21	9629	18	2.9687927294568
21	11046	19	0.973
21	12604	20	0.973
21	14360	21	0.973
21	16055	22	3.9588700603744
21	18181	23	7.4558761884087
21	20288	24	9.3619084687945
21	22546	25	8.2740089653658
21	25133	26	7.6268918402264
21	27618	27	1.5030492633575
21	30283	28	0.973
21	33176	29	5.1262573880891
21	35991	30	0.973
21	39113	31	3.2483201915981
21	42333	32	0.973
21	45573	33	3.5057211968057
21	49357	34	0.973
21	53059	35	4.5259403863064
21	57156	36	3.6482665740827
21	61405	37	0.973
21	65805	38	1.2955497700695
21	70688	39	5.0475964186837
21	75533	40	0.973
21	80695	41	3.5797861249532
21	86023	42	3.5727646894952
21	91457	43	3.2549616337753
21	97520	44	0.973
21	103494	45	4.8201272221351
21	109532	46	0.973
21	116203	47	0.973
21	122875	48	0.973
21	130172	49	0.973
21	137436	50	7.7813593700765
21	145057	51	8.3760092740096
21	152953	52	7.2742883080127
21	160953	53	5.4669018117826
21	169671	54	4.1225894202538
21	178285	55	0.973
21	186904	56	0.973
21	196304	57	0.973
21	205739	58	5.3115676218828
21	215964	59	6.1640646446873
21	226334	60	9.6999085790186
21	236729	61	10.557994920142
21	247863	62	3.1692897105362
21	259118	63	0.973
21	270778	64	6.5019465917396
21	282693	65	2.8387898929067
21	294763	66	0.973
21	307788	67	5.283044972632
21	320690	68	0.973
21	333651	69	2.0803404553236
21	347684	70	3.2678565355456
21	361617	71	0.973
21	376002	72	2.1087653477116
21	390813	73	5.1423168832974
21	406218	74	0.973
21	421858	75	2.2227892360561
21	437712	76	0.973
21	454131	77	6.3188307084651
21	471142	78	0.973
21	488147	79	2.3003652795876
21	506157	80	1.5141583696846
21	524220	81	5.1364354640548
21	542472	82	0.973
21	561686	83	4.0287061554492
21	580950	84	0.973
21	601219	85	4.6673279564781
21	622026	86	2.886654808878
21	642593	87	2.7507073896479
21	673044	88	0.973
21	694378	89	0.973
21	718153	90	4.9808799148514
21	739983	91	1.1575374129399
21	763741	92	0.973
21	785982	93	0.973
21	808332	94	0.973
21	831257	95	3.1705942712312
21	853761	96	8.1269707368141
21	876504	97	3.972776280513
21	899281	98	7.2444091270773
21	921831	99	3.5478472024998
21	944749	100	0.973
21	967452	101	7.9224187124773
21	990228	102	1.0100080392947
21	1013595	103	0.973
21	1036534	104	10.175952658405
21	1059491	105	0.973
21	1082566	106	2.4824512694004
21	1105643	107	5.4001343300581
21	1128650	108	2.0110556472718
21	1151632	109	1.2792449923987
21	1174669	110	2.2761606499703
21	1197710	111	0.973
21	1220912	112	4.112465159974
21	1244025	113	0.973
21	1266807	114	1.8511809459371
21	1289300	115	3.7220353162643
21	1311922	116	0.973
21	1334430	117	5.6249748532336
21	1356533	118	0.973
21	1378366	119	2.5809124669291
21	1400236	120	4.6913832707743
21	1422004	121	2.8043570103275
21	1443455	122	0.973
20	397	5	1.6980901245028
20	600	6	2.4593247350771
20	874	7	2.178188218642
20	1153	8	1.9765617014607
20	1608	9	1.8873011167394
20	2062	10	2.4539943669923
20	2630	11	0.38054995950155
20	3320	12	-0.041746971802786
20	4011	13	-0.23654850299936
20	4978	14	1.0415893885307
20	5954	15	-0.3567601544084
20	7086	16	-0.529308492993
20	8379	17	0.25042078816332
20	9629	18	0.21044062939472
20	11046	19	-3.7143797033497
20	12604	20	-0.92492528118433
20	14360	21	-4.5
20	16055	22	1.3368473113747
20	18181	23	2.3995883058989
20	20288	24	2.4864454656141
20	22546	25	1.8044763513375
20	25133	26	1.4276640661162
20	27618	27	-0.18728192404378
20	30283	28	-0.5486037308583
20	33176	29	0.7645071813371
20	35991	30	-0.64155317402911
20	39113	31	0.28636649530381
20	42333	32	-0.32347325989976
20	45573	33	0.35418720568996
20	49357	34	-0.40724540501833
20	53059	35	0.61432733004913
20	57156	36	0.36141197544057
20	61405	37	-0.61600461220369
20	65805	38	-0.23687897399068
20	70688	39	0.73403916170355
20	75533	40	-0.87927338609006
20	80695	41	0.37703622325789
20	86023	42	0.35582347412128
20	91457	43	0.25951238998678
20	97520	44	-0.88924715949688
20	103494	45	0.6814853816526
20	109532	46	-0.77569832548033
20	116203	47	-3.2373547112217
20	122875	48	-2.9935395833067
20	130172	49	-1.0098474054602
20	137436	50	2.4702338451752
20	145057	51	2.1747559851734
20	152953	52	1.5591775249923
20	160953	53	0.93015329328702
20	169671	54	0.52075857290607
20	178285	55	-4.3266597232316
20	186904	56	-3.0175361617468
20	196304	57	-1.4823174962363
20	205739	58	1.8442333914805
20	215964	59	1.810456270352
20	226334	60	2.5312889968278
20	236729	61	2.3139125195099
20	247863	62	0.2667424787256
20	259118	63	-0.63366687903181
20	270778	64	1.1178844869137
20	282693	65	0.15110760100652
20	294763	66	-1.1437848038739
20	307788	67	0.81297250047792
20	320690	68	-0.34811518301722
20	333651	69	-0.025836421246641
20	347684	70	0.28286870894954
20	361617	71	-0.76702305795625
20	376002	72	-0.0035389943979691
20	390813	73	0.78206443309318
20	406218	74	-0.37489441835787
20	421858	75	0.014945089048705
20	437712	76	-0.39492115771864
20	454131	77	1.0648815880995
20	471142	78	-0.57976761446334
20	488147	79	0.032094318093733
20	506157	80	-0.17741649670061
20	524220	81	0.75356318284758
20	542472	82	-0.64498138125055
20	561686	83	0.47481456333771
20	580950	84	-0.84283212304581
20	601219	85	0.65672308155336
20	622026	86	0.17408814658411
20	642593	87	0.13296138362493
20	673044	88	-0.54893966068048
20	694378	89	-0.37921849493869
20	718153	90	0.73178831033874
20	739983	91	-0.27798792151734
20	763741	92	-1.1859091831517
20	785982	93	-3.9533123196801
20	808332	94	-0.42200811100126
20	831257	95	0.58071709828085
20	853761	96	2.0746710226629
20	876504	97	0.63986648356569
20	899281	98	1.4645938349759
20	921831	99	0.38984814939633
20	944749	100	-0.44407915098185
20	967452	101	1.4694056159799
20	990228	102	-0.32077773523051
20	1013595	103	-1.9444444444444
20	1036534	104	2.0833942902223
20	1059491	105	-1.1296487376443
20	1082566	106	0.1013392841065
20	1105643	107	0.84535985742986
20	1128650	108	-0.053072119574061
20	1151632	109	-0.24443313174415
20	1174669	110	0.024613672192208
20	1197710	111	-0.45050707516711
20	1220912	112	0.51660490104913
20	1244025	113	-0.39109951634891
20	1266807	114	-0.080100813647732
20	1289300	115	0.41479227060918
20	1311922	116	-0.43788786479272
20	1334430	117	0.88858734681271
20	1356533	118	-0.75433927170106
20	1378366	119	0.11379822847538
20	1400236	120	0.64342872297857
20	1422004	121	0.14269649579655
20	1443455	122	-1.1065432942317
15	256	4	2.0125663528328
15	397	5	3.7106564773355
15	600	6	6.1699812124126
15	874	7	8.3481694310547
15	1153	8	10.324731132515
15	1608	9	12.212032249255
15	2062	10	14.666026616247
15	2630	11	15.046576575749
15	3320	12	15.004829603946
15	4011	13	14.768281100946
15	4978	14	15.809870489477
15	5954	15	15.453110335069
15	7086	16	14.923801842076
15	8379	17	15.174222630239
15	9629	18	15.384663259634
15	11046	19	11.670283556284
15	12604	20	10.7453582751
15	14360	21	6.2453582750998
15	16055	22	7.5822055864745
15	18181	23	9.9817938923735
15	20288	24	12.468239357988
15	22546	25	14.272715709325
15	25133	26	15.700379775441
15	27618	27	15.513097851397
15	30283	28	14.964494120539
15	33176	29	15.729001301876
15	35991	30	15.087448127847
15	39113	31	15.373814623151
15	42333	32	15.050341363251
15	45573	33	15.404528568941
15	49357	34	14.997283163923
15	53059	35	15.611610493972
15	57156	36	15.973022469413
15	61405	37	15.357017857209
15	65805	38	15.120138883218
15	70688	39	15.854178044922
15	75533	40	14.974904658832
15	80695	41	15.35194088209
15	86023	42	15.707764356211
15	91457	43	15.967276746198
15	97520	44	15.078029586701
15	103494	45	15.759514968353
15	109532	46	14.983816642873
15	116203	47	11.746461931651
15	122875	48	8.7529223483446
15	130172	49	7.7430749428844
15	137436	50	10.21330878806
15	145057	51	12.388064773233
15	152953	52	13.947242298225
15	160953	53	14.877395591512
15	169671	54	15.398154164418
15	178285	55	11.071494441187
15	186904	56	8.05395827944
15	196304	57	6.5716407832037
15	205739	58	8.4158741746842
15	215964	59	10.226330445036
15	226334	60	12.757619441864
15	236729	61	15.071531961374
15	247863	62	15.338274440099
15	259118	63	14.704607561068
15	270778	64	15.822492047981
15	282693	65	15.973599648988
15	294763	66	14.829814845114
15	307788	67	15.642787345592
15	320690	68	15.294672162575
15	333651	69	15.268835741328
15	347684	70	15.551704450278
15	361617	71	14.784681392321
15	376002	72	14.781142397923
15	390813	73	15.563206831017
15	406218	74	15.188312412659
15	421858	75	15.203257501707
15	437712	76	14.808336343989
15	454131	77	15.873217932088
15	471142	78	15.293450317625
15	488147	79	15.325544635719
15	506157	80	15.148128139018
15	524220	81	15.901691321866
15	542472	82	15.256709940615
15	561686	83	15.731524503953
15	580950	84	14.888692380907
15	601219	85	15.54541546246
15	622026	86	15.719503609044
15	642593	87	15.852464992669
15	673044	88	15.303525331989
15	694378	89	14.92430683705
15	718153	90	15.656095147389
15	739983	91	15.378107225872
15	763741	92	14.19219804272
15	785982	93	10.23888572304
15	808332	94	9.8168776120386
15	831257	95	10.397594710319
15	853761	96	12.472265732982
15	876504	97	13.112132216548
15	899281	98	14.576726051524
15	921831	99	14.96657420092
15	944749	100	14.522495049938
15	967452	101	15.991900665918
15	990228	102	15.671122930688
15	1013595	103	13.726678486243
15	1036534	104	15.810072776466
15	1059491	105	14.680424038821
15	1082566	106	14.781763322928
15	1105643	107	15.627123180358
15	1128650	108	15.574051060784
15	1151632	109	15.32961792904
15	1174669	110	15.354231601232
15	1197710	111	14.903724526065
15	1220912	112	15.420329427114
15	1244025	113	15.029229910765
15	1266807	114	14.949129097117
15	1289300	115	15.363921367726
15	1311922	116	14.926033502934
15	1334430	117	15.814620849746
15	1356533	118	15.060281578045
15	1378366	119	15.174079806521
15	1400236	120	15.817508529499
15	1422004	121	15.960205025296
15	1443455	122	14.853661731064
9	116	3	916.51891571645
9	256	4	916.51891571645
9	397	5	918.04298245587
9	600	6	920.80803526917
9	874	7	925.27107548768
9	1153	8	931.30970261458
9	1608	9	938.77807062145
9	2062	10	947.61161309133
9	2630	11	958.22024614557
9	3320	12	970.52862107323
9	4011	13	984.70471908078
9	4978	14	999.02681569368
9	5954	15	1014.7400216427
9	7086	16	1030.0986487364
9	8379	17	1044.9312036294
9	9629	18	1060.0129862224
9	11046	19	1075.277839253
9	12604	20	1086.7042562021
9	14360	21	1097.6346823297
9	16055	22	1103.8949740751
9	18181	23	1111.5015620057
9	20288	24	1121.2566392323
9	22546	25	1132.7912782706
9	25133	26	1145.9000165439
9	27618	27	1160.9021221324
9	30283	28	1176.2335134077
9	33176	29	1188.6015284244
9	35991	30	1200.2587336059
9	39113	31	1208.0981067273
9	42333	32	1211.6601125357
9	45573	33	1215.2653290054
9	49357	34	1219.3845903777
9	53059	35	1223.2311350742
9	57156	36	1226.8959683812
9	61405	37	1230.7539965163
9	65805	38	1235.1406209728
9	70688	39	1236.3997348548
9	75533	40	1240.9916016296
9	80695	41	1244.5771588852
9	86023	42	1248.1641423769
9	91457	43	1251.8342640814
9	97520	44	1255.5650208981
9	103494	45	1259.5972782359
9	109532	46	1264.8713801446
9	116203	47	1269.8858857379
9	122875	48	1273.5370178637
9	130172	49	1276.1962565218
9	137436	50	1278.548691903
9	145057	51	1281.6292325279
9	152953	52	1285.337364631
9	160953	53	1289.5979627206
9	169671	54	1294.1427036723
9	178285	55	1298.846525748
9	186904	56	1302.2565155828
9	196304	57	1304.7449574469
9	205739	58	1306.7754057647
9	215964	59	1309.3983184521
9	226334	60	1312.6049968556
9	236729	61	1316.6504650212
9	247863	62	1321.4296797511
9	259118	63	1326.2934790865
9	270778	64	1330.9563413114
9	282693	65	1335.9303328531
9	294763	66	1341.0211225972
9	307788	67	1345.7473878712
9	320690	68	1350.732747661
9	333651	69	1355.6071630649
9	347684	70	1360.4733443956
9	361617	71	1365.6045757148
9	376002	72	1370.8284273319
9	390813	73	1376.0510285208
9	406218	74	1381.588961393
9	421858	75	1387.358007799
9	437712	76	1393.6132344501
9	454131	77	1401.0841254522
9	471142	78	1409.0866469517
9	488147	79	1416.7180711894
9	506157	80	1424.3655104763
9	524220	81	1431.9451259684
9	542472	82	1439.9619204675
9	561686	83	1447.6535493546
9	580950	84	1455.5845547146
9	601219	85	1462.7984273039
9	622026	86	1469.6813236121
9	642593	87	1476.1751169875
9	673044	88	1478.9244491919
9	694378	89	1484.1174598116
9	718153	90	1487.3892102594
9	739983	91	1491.3218851156
9	763741	92	1497.267350949
9	785982	93	1503.4851872249
9	808332	94	1508.4569264909
9	831257	95	1514.961434942
9	853761	96	1522.506742979
9	876504	97	1529.1191782343
9	899281	98	1537.0345259337
9	921831	99	1546.5256612794
9	944749	100	1556.3855945428
9	967452	101	1565.8864774955
9	990228	102	1572.9705211859
9	1013595	103	1580.1808422913
9	1036534	104	1589.6423267756
9	1059491	105	1597.3093792869
9	1082566	106	1604.4286116641
9	1105643	107	1611.3526067325
9	1128650	108	1618.1057447624
9	1151632	109	1624.1542802902
9	1174669	110	1629.509999863
9	1197710	111	1634.3893265308
9	1220912	112	1638.9779618306
9	1244025	113	1643.7256521024
9	1266807	114	1647.6048574286
9	1289300	115	1650.5993396187
9	1311922	116	1653.346415383
9	1334430	117	1656.0151966083
9	1356533	118	1658.5784724851
9	1378366	119	1660.8788804462
9	1400236	120	1663.1597024738
9	1422004	121	1664.4279691737
9	1443455	122	1665.0993341947
8	116	3	1593.3739804024
8	256	4	1593.3739804024
8	397	5	1592.0224495203
8	600	6	1589.4823436952
8	874	7	1585.1142395823
8	1153	8	1579.2040638506
8	1608	9	1571.8945601468
8	2062	10	1563.2489214555
8	2630	11	1552.8659512362
8	3320	12	1544.1141484317
8	4011	13	1540.996056319
8	4978	14	1541.9642473704
8	5954	15	1543.2104918977
8	7086	16	1544.4286140952
8	8379	17	1545.6050124967
8	9629	18	1546.796869986
8	11046	19	1548.2989916989
8	12604	20	1552.4438602751
8	14360	21	1552.7758038018
8	16055	22	1551.8603760763
8	18181	23	1550.509768019
8	20288	24	1547.7840078751
8	22546	25	1543.2006226124
8	25133	26	1537.7197191868
8	27618	27	1533.1836365855
8	30283	28	1529.0784236839
8	33176	29	1520.2839859454
8	35991	30	1509.3675208729
8	39113	31	1496.4283102668
8	42333	32	1481.2172490679
8	45573	33	1466.4757686061
8	49357	34	1451.6453183555
8	53059	35	1437.1654851324
8	57156	36	1422.0042496685
8	61405	37	1406.561030834
8	65805	38	1391.7934499343
8	70688	39	1376.7341129768
8	75533	40	1361.7164802711
8	80695	41	1347.1432663696
8	86023	42	1332.157210871
8	91457	43	1316.8238122988
8	97520	44	1301.237086339
8	103494	45	1286.675766038
8	109532	46	1271.7837020626
8	116203	47	1257.6246396493
8	122875	48	1246.4306761911
8	130172	49	1238.0688148787
8	137436	50	1230.6716832434
8	145057	51	1220.9259420765
8	152953	52	1209.1057653413
8	160953	53	1195.8204987571
8	169671	54	1181.6492265955
8	178285	55	1166.9819125412
8	186904	56	1156.4448983077
8	196304	57	1148.7822793708
8	205739	58	1142.5299525813
8	215964	59	1134.5314599877
8	226334	60	1124.8178676826
8	236729	61	1112.7048228447
8	247863	62	1098.3947751703
8	259118	63	1083.8314620949
8	270778	64	1069.8698000839
8	282693	65	1054.8323756665
8	294763	66	1039.6743864318
8	307788	67	1025.6017804624
8	320690	68	1010.7577122877
8	333651	69	996.24398456934
8	347684	70	981.7547740671
8	361617	71	967.05947448526
8	376002	72	953.21216996634
8	390813	73	939.36818006285
8	406218	74	924.80706239084
8	421858	75	910.74016901768
8	437712	76	896.87094039086
8	454131	77	884.07504443091
8	471142	78	870.3483768269
8	488147	79	857.07689872196
8	506157	80	843.77756954149
8	524220	81	830.63889721088
8	542472	82	816.86681689657
8	561686	83	803.65333976504
8	580950	84	790.02863692371
8	601219	85	776.97467456091
8	622026	86	763.00250464717
8	642593	87	748.65344544475
8	673044	88	733.67407411365
8	694378	89	719.2574566545
8	718153	90	704.67233341288
8	739983	91	689.56343037069
8	763741	92	675.34922768305
8	785982	93	662.57311746692
8	808332	94	653.60223901061
8	831257	95	648.19663678177
8	853761	96	642.15835819158
8	876504	97	631.4206122755
8	899281	98	620.79199107704
8	921831	99	609.52141487411
8	944749	100	598.04225503373
8	967452	101	586.85998334344
8	990228	102	572.32535093537
8	1013595	103	558.23769658926
8	1036534	104	547.73919360982
8	1059491	105	533.87175269864
8	1082566	106	520.9951571391
8	1105643	107	507.90073675289
8	1128650	108	493.77324829813
8	1151632	109	479.39042244989
8	1174669	110	465.11315451278
8	1197710	111	450.54677805515
8	1220912	112	436.41940416694
8	1244025	113	421.80233586866
8	1266807	114	407.34454496743
8	1289300	115	392.75519741725
8	1311922	116	377.69106999213
8	1334430	117	363.05628599017
8	1356533	118	347.49631621501
8	1378366	119	332.60834586505
8	1400236	120	317.60224083499
8	1422004	121	301.85204273499
8	1443455	122	285.9013358576
26	874	7	2.49970770846
26	1153	8	3.5454596383812
26	1608	9	4.6295892761884
26	2062	10	4.367965600383
26	2630	11	6.5766284180664
26	3320	12	7.6591509996485
26	4011	13	6.8316397687457
26	4978	14	9.1975603061923
26	5954	15	2.4190711814427
26	7086	16	2.5844733902956
26	8379	17	0.973
26	9629	18	5.0779206426013
26	11046	19	2.3623156546929
26	12604	20	2.0540906212908
26	14360	21	1.5090680767075
26	16055	22	0.973
26	18181	23	0.973
26	20288	24	0.973
26	22546	25	3.3647570760445
26	25133	26	6.8177777060076
26	27618	27	8.7425727121414
26	30283	28	6.5769479848166
26	33176	29	8.0960254415907
26	35991	30	5.9312440290728
26	39113	31	4.0854284391081
26	42333	32	0.973
26	45573	33	5.6774095681714
26	49357	34	2.3295933290251
26	53059	35	0.973
26	57156	36	5.9587628755098
26	61405	37	0.973
26	65805	38	2.2013748627529
26	70688	39	4.7049559499071
26	75533	40	0.973
26	80695	41	1.0616280847165
26	86023	42	4.2614134233675
26	91457	43	2.9426190149473
26	97520	44	0.973
26	103494	45	5.1581689140814
26	109532	46	1.756372819565
26	116203	47	2.797732099837
26	122875	48	0.973
26	130172	49	4.8012577577841
26	137436	50	0.973
26	145057	51	0.973
26	152953	52	0.973
26	160953	53	5.8728473150248
26	169671	54	8.6629867319808
26	178285	55	9.5178838292314
26	186904	56	11.328238960623
26	196304	57	0.973
26	205739	58	0.973
26	215964	59	0.973
26	226334	60	0.973
26	236729	61	4.2439031763479
26	247863	62	6.8331683947801
26	259118	63	5.6446376243517
26	270778	64	9.0498664915042
26	282693	65	9.9803921410199
26	294763	66	0.973
26	307788	67	3.2468029532494
26	320690	68	0.973
26	333651	69	3.7097423835569
26	347684	70	0.973
26	361617	71	5.5015253328439
26	376002	72	0.973
26	390813	73	1.7623256398633
26	406218	74	3.9700450479973
26	421858	75	0.973
26	437712	76	5.4060294302523
26	454131	77	1.4844137458575
26	471142	78	2.218858946274
26	488147	79	2.914786164096
26	506157	80	2.2543028622489
26	524220	81	0.973
26	542472	82	2.5676661938264
26	561686	83	1.3858141476414
26	580950	84	6.3855240784246
26	601219	85	0.973
26	622026	86	1.4104754746642
26	642593	87	4.9740599427062
26	673044	88	0.973
26	694378	89	1.6193060315756
26	718153	90	1.9681280496079
26	739983	91	2.5871118554037
26	763741	92	3.2958480323619
26	785982	93	0.973
26	808332	94	5.1071896111967
26	831257	95	3.4855843047295
26	853761	96	0.973
26	876504	97	0.973
26	899281	98	0.973
26	921831	99	8.3478601659546
26	944749	100	9.8179697580431
26	967452	101	6.1748019549647
26	990228	102	1.1751551528422
26	1013595	103	4.4592413695434
26	1036534	104	0.973
26	1059491	105	5.0989847559761
26	1082566	106	2.2691594758913
26	1105643	107	0.973
26	1128650	108	1.3051121986851
26	1151632	109	3.2943550152844
26	1174669	110	1.146737393761
26	1197710	111	6.2300198360571
26	1220912	112	0.973
26	1244025	113	2.0553726823314
26	1266807	114	3.0949840543008
26	1289300	115	3.911201008424
26	1311922	116	2.2790547435317
26	1334430	117	3.5688698122912
26	1356533	118	0.973
26	1378366	119	7.01277161693
26	1400236	120	2.2321831830427
26	1422004	121	0.973
26	1443455	122	0.973
26	1464248	123	4.5492828718096
26	1484311	124	1.0535635146422
26	1504459	125	3.1786228951141
26	1524513	126	4.3550349430693
25	874	7	2.0847704734653
25	1153	8	2.0182335835416
25	1608	9	2.012448851252
25	2062	10	1.4621258274885
25	2630	11	2.0215531989234
25	3320	12	2.001868401817
25	4011	13	1.4854095157003
25	4978	14	1.8866237668454
25	5954	15	0.059270387887954
25	7086	16	0.09991202771198
25	8379	17	-0.37459695551079
25	9629	18	0.73611341572832
25	11046	19	0.027852044068277
25	12604	20	-0.050886398553848
25	14360	21	-0.18950528935529
25	16055	22	-3.2216179647527
25	18181	23	-3.1743493640703
25	20288	24	-4.5
25	22546	25	1.311040297593
25	25133	26	2.5112010973739
25	27618	27	2.5746821876615
25	30283	28	1.5186360970139
25	33176	29	1.724187891325
25	35991	30	1.0019161673215
25	39113	31	0.47697595253121
25	42333	32	-0.87733168797568
25	45573	33	0.8902642711997
25	49357	34	0.018890861235558
25	53059	35	-1.2089775513625
25	57156	36	0.98258566309232
25	61405	37	-0.39437646416482
25	65805	38	0.0043641877127811
25	70688	39	0.63469925760291
25	75533	40	-0.60605227912311
25	80695	41	-0.30068108772393
25	86023	42	0.5430426526349
25	91457	43	0.18493673645426
25	97520	44	-0.80012991789263
25	103494	45	0.76884584072977
25	109532	46	-0.1228396170307
25	116203	47	0.14719247454777
25	122875	48	-0.69659748368431
25	130172	49	0.6748077405151
25	137436	50	-2.3594861800293
25	145057	51	-2.2788523380337
25	152953	52	-4.5
25	160953	53	2.0452050217893
25	169671	54	2.5418741665548
25	178285	55	2.3065778597258
25	186904	56	2.3683958726138
25	196304	57	-0.6484371797168
25	205739	58	-3.1578200385754
25	215964	59	-2.0960148473561
25	226334	60	-4.5
25	236729	61	1.6086549210595
25	247863	62	2.2911964192521
25	259118	63	1.4827357839793
25	270778	64	2.2429834315786
25	282693	65	2.1236608204665
25	294763	66	-0.42501130754736
25	307788	67	0.29827002882957
25	320690	68	-0.36933514017146
25	333651	69	0.42216296594124
25	347684	70	-0.34111658623442
25	361617	71	0.86564906411804
25	376002	72	-0.39909690029454
25	390813	73	-0.11052067419514
25	406218	74	0.46375961906742
25	421858	75	-0.88199873410631
25	437712	76	0.84724184682127
25	454131	77	-0.19078937678132
25	471142	78	0.0064796891296286
25	488147	79	0.1855462431442
25	506157	80	0.0098350640153502
25	524220	81	-0.77212982797064
25	542472	82	0.11758641293272
25	561686	83	-0.20636103367433
25	580950	84	1.0838794336421
25	601219	85	-0.91805721309502
25	622026	86	-0.19887142269872
25	642593	87	0.74342222181149
25	673044	88	-0.50948269157671
25	694378	89	-0.14201722533908
25	718153	90	-0.043241306394339
25	739983	91	0.12550931281876
25	763741	92	0.30687963662203
25	785982	93	-0.37281566408928
25	808332	94	0.76837376854382
25	831257	95	0.32093196725473
25	853761	96	-1.3069729411302
25	876504	97	-4.5
25	899281	98	-0.77130662447307
25	921831	99	2.319083649246
25	944749	100	2.3081422952702
25	967452	101	1.1050323966917
25	990228	102	-0.26618577302434
25	1013595	103	0.60890309580136
25	1036534	104	-0.44796881531365
25	1059491	105	0.75620721047744
25	1082566	106	0.01003569564782
25	1105643	107	-0.66602088431828
25	1128650	108	-0.23027895903215
25	1151632	109	0.30930016394705
25	1174669	110	-0.27492748361547
25	1197710	111	1.0364373721182
25	1220912	112	-1.0607564983889
25	1244025	113	-0.020434029283933
25	1266807	114	0.25770067470148
25	1289300	115	0.45413127841894
25	1311922	116	0.018253953848033
25	1334430	117	0.34356170175597
25	1356533	118	-1.1830957847415
25	1378366	119	1.2354899299331
25	1400236	120	-0.0062406843528144
25	1422004	121	-0.59820125268307
25	1443455	122	-0.6064481059555
25	1464248	123	0.63580092473421
25	1484311	124	-0.30301388087683
25	1504459	125	0.26810421685223
25	1524513	126	0.54902763669379
24	600	6	0.43621021959526
24	874	7	2.5209806930606
24	1153	8	4.5392142766022
24	1608	9	6.5516631278541
24	2062	10	8.0137889553426
24	2630	11	10.035342154266
24	3320	12	12.037210556083
24	4011	13	13.522620071783
24	4978	14	15.409243838629
24	5954	15	15.468514226517
24	7086	16	15.568426254229
24	8379	17	15.193829298718
24	9629	18	15.929942714446
24	11046	19	15.957794758515
24	12604	20	15.906908359961
24	14360	21	15.717403070605
24	16055	22	12.495785105853
24	18181	23	9.3214357417823
24	20288	24	4.8214357417823
24	22546	25	6.1324760393753
24	25133	26	8.6436771367492
24	27618	27	11.218359324411
24	30283	28	12.736995421425
24	33176	29	14.46118331275
24	35991	30	15.463099480071
24	39113	31	15.940075432602
24	42333	32	15.062743744627
24	45573	33	15.953008015826
24	49357	34	15.971898877062
24	53059	35	14.762921325699
24	57156	36	15.745506988792
24	61405	37	15.351130524627
24	65805	38	15.35549471234
24	70688	39	15.990193969943
24	75533	40	15.38414169082
24	80695	41	15.083460603096
24	86023	42	15.62650325573
24	91457	43	15.811439992185
24	97520	44	15.011310074292
24	103494	45	15.780155915022
24	109532	46	15.657316297991
24	116203	47	15.804508772539
24	122875	48	15.107911288855
24	130172	49	15.78271902937
24	137436	50	13.42323284934
24	145057	51	11.144380511307
24	152953	52	6.6443805113068
24	160953	53	8.6895855330961
24	169671	54	11.231459699651
24	178285	55	13.538037559377
24	186904	56	15.90643343199
24	196304	57	15.257996252274
24	205739	58	12.100176213698
24	215964	59	10.004161366342
24	226334	60	5.5041613663421
24	236729	61	7.1128162874016
24	247863	62	9.4040127066537
24	259118	63	10.886748490633
24	270778	64	13.129731922212
24	282693	65	15.253392742678
24	294763	66	14.828381435131
24	307788	67	15.12665146396
24	320690	68	14.757316323789
24	333651	69	15.17947928973
24	347684	70	14.838362703496
24	361617	71	15.704011767614
24	376002	72	15.304914867319
24	390813	73	15.194394193124
24	406218	74	15.658153812191
24	421858	75	14.776155078085
24	437712	76	15.623396924906
24	454131	77	15.432607548125
24	471142	78	15.439087237255
24	488147	79	15.624633480399
24	506157	80	15.634468544414
24	524220	81	14.862338716444
24	542472	82	14.979925129376
24	561686	83	14.773564095702
24	580950	84	15.857443529344
24	601219	85	14.939386316249
24	622026	86	14.74051489355
24	642593	87	15.483937115362
24	673044	88	14.974454423785
24	694378	89	14.832437198446
24	718153	90	14.789195892052
24	739983	91	14.914705204871
24	763741	92	15.221584841493
24	785982	93	14.848769177403
24	808332	94	15.617142945947
24	831257	95	15.938074913202
24	853761	96	14.631101972072
24	876504	97	10.131101972072
24	899281	98	9.3597953475986
24	921831	99	11.678878996845
24	944749	100	13.987021292115
24	967452	101	15.092053688806
24	990228	102	14.825867915782
24	1013595	103	15.434771011584
24	1036534	104	14.98680219627
24	1059491	105	15.743009406747
24	1082566	106	15.753045102395
24	1105643	107	15.087024218077
24	1128650	108	14.856745259045
24	1151632	109	15.166045422992
24	1174669	110	14.891117939376
24	1197710	111	15.927555311495
24	1220912	112	14.866798813106
24	1244025	113	14.846364783822
24	1266807	114	15.104065458523
24	1289300	115	15.558196736942
24	1311922	116	15.57645069079
24	1334430	117	15.920012392546
24	1356533	118	14.736916607805
24	1378366	119	15.972406537738
24	1400236	120	15.966165853385
24	1422004	121	15.367964600702
24	1443455	122	14.761516494746
24	1464248	123	15.397317419481
24	1484311	124	15.094303538604
24	1504459	125	15.362407755456
24	1524513	126	15.91143539215
17	397	5	916.51891571645
17	600	6	916.51891571645
17	874	7	916.8492469307
17	1153	8	918.75832327971
17	1608	9	922.09066221906
17	2062	10	926.82979108042
17	2630	11	932.62654494061
17	3320	12	939.88558416603
17	4011	13	948.59266980876
17	4978	14	958.37422264697
17	5954	15	971.03653066409
17	7086	16	985.64114470629
17	8379	17	1000.854933098
17	9629	18	1015.9558644487
17	11046	19	1031.7884084784
17	12604	20	1047.6486342594
17	14360	21	1063.4530485993
17	16055	22	1079.0477503193
17	18181	23	1091.2931135878
17	20288	24	1100.4115373199
17	22546	25	1105.0538113518
17	25133	26	1110.9865083644
17	27618	27	1119.1513423206
17	30283	28	1129.6186640525
17	33176	29	1141.4287727218
17	35991	30	1155.1079652222
17	39113	31	1169.8868522127
17	42333	32	1183.3742450929
17	45573	33	1194.4621968745
17	49357	34	1203.9537601455
17	53059	35	1207.8917557106
17	57156	36	1211.2951808538
17	61405	37	1215.4270042505
17	65805	38	1219.4603518521
17	70688	39	1223.0544317356
17	75533	40	1226.8231211589
17	80695	41	1231.1177289262
17	86023	42	1235.4863717783
17	91457	43	1240.0122967996
17	97520	44	1243.9825948639
17	103494	45	1247.4899899118
17	109532	46	1251.1770259157
17	116203	47	1254.8353604232
17	122875	48	1258.7952966541
17	130172	49	1263.8513319398
17	137436	50	1269.1331993529
17	145057	51	1273.3631382849
17	152953	52	1276.7489294867
17	160953	53	1278.7675688407
17	169671	54	1281.3879978337
17	178285	55	1284.7495452355
17	186904	56	1288.8742520618
17	196304	57	1293.7333430881
17	205739	58	1298.3943497799
17	215964	59	1302.1170043022
17	226334	60	1305.2080029261
17	236729	61	1306.9086307535
17	247863	62	1309.1254804508
17	259118	63	1312.0683217012
17	270778	64	1315.5199776744
17	282693	65	1319.6834434962
17	294763	66	1324.5203266654
17	307788	67	1329.2224378481
17	320690	68	1333.982378944
17	333651	69	1338.6690864552
17	347684	70	1343.506789865
17	361617	71	1348.2357793433
17	376002	72	1353.24065137
17	390813	73	1358.1183311261
17	406218	74	1362.960787919
17	421858	75	1368.3999045148
17	437712	76	1373.6207435407
17	454131	77	1379.1409373903
17	471142	78	1384.8610622501
17	488147	79	1390.9102277983
17	506157	80	1398.2509566446
17	524220	81	1406.212213478
17	542472	82	1413.6285132373
17	561686	83	1421.1034885593
17	580950	84	1428.4794292851
17	601219	85	1436.4551040679
17	622026	86	1443.9867551115
17	642593	87	1451.4181456674
17	673044	88	1459.2243305177
17	694378	89	1466.1179199645
17	718153	90	1472.4252714623
17	739983	91	1477.7835338131
17	763741	92	1480.5828245446
17	785982	93	1485.2230538685
17	808332	94	1488.2123634382
17	831257	95	1493.0254700852
17	853761	96	1499.2564799561
17	876504	97	1506.0885651055
17	899281	98	1511.3681033782
17	921831	99	1519.4934697089
17	944749	100	1525.8167303986
17	967452	101	1533.7624608011
17	990228	102	1543.3378709414
17	1013595	103	1553.1051073349
17	1036534	104	1563.2734872238
17	1059491	105	1570.7235938538
17	1082566	106	1577.8198296691
17	1105643	107	1588.2000539856
17	1128650	108	1595.5164660323
17	1151632	109	1602.7212049136
17	1174669	110	1609.9403414099
17	1197710	111	1616.5188960162
17	1220912	112	1622.9024106075
17	1244025	113	1628.1478549437
17	1266807	114	1633.0070104658
17	1289300	115	1637.6573277616
17	1311922	116	1642.4474653292
17	1334430	117	1646.7618263491
17	1356533	118	1650.1284863524
17	1378366	119	1652.7634533954
17	1400236	120	1655.6193265705
17	1422004	121	1658.2634343125
17	1443455	122	1660.6108398328
17	1464248	123	1662.8369886902
17	1484311	124	1664.3191236544
17	1504459	125	1664.9540645838
17	1524513	126	1665.6350609064
16	397	5	1593.3739804024
16	600	6	1593.3739804024
16	874	7	1593.0810451747
16	1153	8	1591.3880906765
16	1608	9	1588.2270003013
16	2062	10	1583.5886803989
16	2630	11	1577.9152328971
16	3320	12	1570.810605212
16	4011	13	1562.288733406
16	4978	14	1552.7152500648
16	5954	15	1543.8289073074
16	7086	16	1540.9729346986
16	8379	17	1542.1092388711
16	9629	18	1543.3069227246
16	11046	19	1544.5626321841
16	12604	20	1545.8205371364
16	14360	21	1547.1327973296
16	16055	22	1548.6707910133
16	18181	23	1549.3805921731
16	20288	24	1549.2932161694
16	22546	25	1548.3633630877
16	25133	26	1547.3649542764
16	27618	27	1545.1696253494
16	30283	28	1541.0293923161
16	33176	29	1536.1198922302
16	35991	30	1531.3370809837
16	39113	31	1528.0161685077
16	42333	32	1520.6271889828
16	45573	33	1510.7948576943
16	49357	34	1498.4384197453
16	53059	35	1483.276327369
16	57156	36	1469.0962043074
16	61405	37	1453.9444595787
16	65805	38	1439.1794755555
16	70688	39	1424.2957017373
16	75533	40	1408.7924445029
16	80695	41	1394.0088356281
16	86023	42	1379.7212534762
16	91457	43	1364.9192823047
16	97520	44	1349.627294925
16	103494	45	1334.973751923
16	109532	46	1319.5696871122
16	116203	47	1304.2855342612
16	122875	48	1288.9402579323
16	130172	49	1274.6639314147
16	137436	50	1259.7499405994
16	145057	51	1246.9774330302
16	152953	52	1236.3309585683
16	160953	53	1229.9834341494
16	169671	54	1221.6919244042
16	178285	55	1210.9760758782
16	186904	56	1198.0771511871
16	196304	57	1182.9256822423
16	205739	58	1168.3918738077
16	215964	59	1156.8744931461
16	226334	60	1147.3564308873
16	236729	61	1142.1197150198
16	247863	62	1135.3596748982
16	259118	63	1126.4265167916
16	270778	64	1116.0897571366
16	282693	65	1103.6234006812
16	294763	66	1089.1406806828
16	307788	67	1075.0614984328
16	320690	68	1060.686929374
16	333651	69	1046.6776492482
16	347684	70	1032.273232666
16	361617	71	1018.1925152909
16	376002	72	1003.2903488072
16	390813	73	988.76690137554
16	406218	74	974.34833144343
16	421858	75	959.64966043204
16	437712	76	945.81034164285
16	454131	77	931.17749774866
16	471142	78	916.82856982492
16	488147	79	902.61079116929
16	506157	80	888.82103494865
16	524220	81	875.34717911098
16	542472	82	862.44981463358
16	561686	83	849.45041003624
16	580950	84	836.6313522586
16	601219	85	822.89118949438
16	622026	86	809.95253887985
16	642593	87	797.1861261204
16	673044	88	783.7758528848
16	694378	89	770.44955046554
16	718153	90	756.99284594921
16	739983	91	743.29451608302
16	763741	92	729.24051125648
16	785982	93	714.73928888392
16	808332	94	700.17119618084
16	831257	95	685.35875120985
16	853761	96	670.65550001056
16	876504	97	657.6864540528
16	899281	98	649.54905604762
16	921831	99	646.675711705
16	944749	100	636.78336357541
16	967452	101	625.10465556875
16	990228	102	613.23271330288
16	1013595	103	601.86147327875
16	1036534	104	590.0232128216
16	1059491	105	576.93546688706
16	1082566	106	562.68060658471
16	1105643	107	550.34784050022
16	1128650	108	537.11460496565
16	1151632	109	524.08335331202
16	1174669	110	510.70926439159
16	1197710	111	497.31532139251
16	1220912	112	482.68775777482
16	1244025	113	468.87000788226
16	1266807	114	454.80261766863
16	1289300	115	440.4853388172
16	1311922	116	425.73758486182
16	1334430	117	410.83645654324
16	1356533	118	395.33721342604
16	1378366	119	380.88785610899
16	1400236	120	365.22711679568
16	1422004	121	349.53520629536
16	1443455	122	334.34307325796
16	1464248	123	319.74608394346
16	1484311	124	304.43806214129
16	1504459	125	289.35274144014
16	1524513	126	274.00099778617
41	2062	10	3.9535579137038
41	2630	11	4.9501488136637
41	3320	12	5.6407186206977
41	4011	13	7.3654800823863
41	4978	14	7.1930587001801
41	5954	15	9.1503283861779
41	7086	16	7.6491662299948
41	8379	17	1.3589157683511
41	9629	18	0.973
41	11046	19	1.4486533772074
41	12604	20	4.3863860232502
41	14360	21	1.6158980427838
41	16055	22	5.0791210005168
41	18181	23	0.973
41	20288	24	0.973
41	22546	25	0.973
41	25133	26	0.973
41	27618	27	5.544732519896
41	30283	28	6.207445371035
41	33176	29	6.4540094925267
41	35991	30	8.5273836370086
41	39113	31	6.7827606757411
41	42333	32	6.2065671742733
41	45573	33	0.973
41	49357	34	4.7632332013908
41	53059	35	1.1332875634678
41	57156	36	1.0987325519013
41	61405	37	2.5154331971027
41	65805	38	3.7869526791098
41	70688	39	1.2908311181108
41	75533	40	1.6061864793669
41	80695	41	5.2888444116649
41	86023	42	1.3211530559755
41	91457	43	1.5442002044217
41	97520	44	1.5233131321997
41	103494	45	3.5939975022824
41	109532	46	3.3194601051741
41	116203	47	0.973
41	122875	48	2.1650075846083
41	130172	49	1.5171299724871
41	137436	50	3.6452430948725
41	145057	51	1.6632679561051
41	152953	52	0.973
41	160953	53	0.973
41	169671	54	0.973
41	178285	55	0.973
41	186904	56	3.0544778277287
41	196304	57	4.8391830244804
41	205739	58	6.4744781681527
41	215964	59	7.1111882234375
41	226334	60	10.627401387959
41	236729	61	7.3311626081767
41	247863	62	0.973
41	259118	63	0.973
41	270778	64	0.973
41	282693	65	5.6731858071333
41	294763	66	4.9929900389333
41	307788	67	5.403494546076
41	320690	68	6.0211137108188
41	333651	69	8.5428911535704
41	347684	70	4.9939689294753
41	361617	71	6.4034637631898
41	376002	72	2.4411601765182
41	390813	73	1.4040571070836
41	406218	74	2.7048411175688
41	421858	75	0.973
41	437712	76	6.3751908313316
41	454131	77	0.973
41	471142	78	0.973
41	488147	79	6.1022841698059
41	506157	80	1.3739081069324
41	524220	81	0.973
41	542472	82	3.8947729464927
41	561686	83	0.973
41	580950	84	0.973
41	601219	85	5.8786137614862
41	622026	86	0.973
41	642593	87	6.6319937327552
41	673044	88	0.973
41	694378	89	3.3799013163829
41	718153	90	3.3133825246148
41	739983	91	0.973
41	763741	92	3.7018995824743
41	785982	93	1.0519712965799
41	808332	94	4.5613851557224
41	831257	95	1.5537463531098
41	853761	96	2.3858726725511
41	876504	97	2.3139125604427
41	899281	98	0.973
41	921831	99	4.2503239023273
41	944749	100	0.973
41	967452	101	0.973
41	990228	102	0.973
41	1013595	103	6.5550847557095
41	1036534	104	10.607347595143
41	1059491	105	7.7089131361148
41	1082566	106	0.973
41	1105643	107	1.5595551055195
41	1128650	108	6.2886302339344
41	1151632	109	0.973
41	1174669	110	4.120828000407
41	1197710	111	1.3882981558726
41	1220912	112	2.3221022824701
41	1244025	113	0.973
41	1266807	114	3.5805802333756
41	1289300	115	2.2281201528234
41	1311922	116	2.4952561358433
41	1334430	117	0.973
41	1356533	118	5.0347313782446
41	1378366	119	0.973
41	1400236	120	1.9987527008651
41	1422004	121	1.2237727223169
41	1443455	122	6.4928640581868
41	1464248	123	1.5786642685297
41	1484311	124	2.7363811249744
41	1504459	125	0.973
41	1524513	126	1.1648124347858
41	1544212	127	3.4156363672961
41	1563475	128	1.2051789949763
41	1582451	129	3.7174834190231
41	1601146	130	4.4829071171703
40	2062	10	2.4155336979311
40	2630	11	2.1719266681466
40	3320	12	1.9519329612609
40	4011	13	2.1622719867853
40	4978	14	1.7529666066635
40	5954	15	2.011885799258
40	7086	16	1.4032669416636
40	8379	17	-0.22922852167394
40	9629	18	-0.80922953074332
40	11046	19	-0.18785671729129
40	12604	20	0.59709224253893
40	14360	21	-0.15005340315402
40	16055	22	0.73793340355624
40	18181	23	-1.44046912383
40	20288	24	-1.8577071858836
40	22546	25	-4.3048646100176
40	25133	26	-3.2203988052206
40	27618	27	2.2776585371932
40	30283	28	2.0199117310578
40	33176	29	1.7447784148622
40	35991	30	2.0656206130283
40	39113	31	1.3384768957272
40	42333	32	1.0625619743008
40	45573	33	-0.83191110310145
40	49357	34	0.68922916408628
40	53059	35	-0.28202345431782
40	57156	36	-0.28821370191872
40	61405	37	0.10289216374513
40	65805	38	0.42931084139273
40	70688	39	-0.23900910906959
40	75533	40	-0.14970234630164
40	80695	41	0.79946665465832
40	86023	42	-0.23711321277078
40	91457	43	-0.17436415548436
40	97520	44	-0.17662184832152
40	103494	45	0.36699160824064
40	109532	46	0.28024424170144
40	116203	47	-0.77612599907443
40	122875	48	0.0020038037793721
40	130172	49	-0.17261843227316
40	137436	50	0.39573244652711
40	145057	51	-0.13761810685974
40	152953	52	-0.88650746099273
40	160953	53	-3.7891921758109
40	169671	54	-2.7156127041094
40	178285	55	-3.9037997804766
40	186904	56	1.3312587077497
40	196304	57	1.9380381025374
40	205739	58	2.1537052321015
[...]
340	1619871	131	1550.5576491133
340	1637837	132	1536.4298974029
340	1655456	133	1522.6769025403
340	1672378	134	1508.7907564218
340	1688944	135	1494.3925672616
340	1704875	136	1479.0126372113
340	1720711	137	1463.40524215
340	1735832	138	1448.5279346033
340	1750885	139	1433.2314684724
340	1765284	140	1418.1500116146
340	1779549	141	1402.8154185043
340	1793765	142	1388.402890731
340	1807647	143	1374.0020027428
340	1821016	144	1359.7530038835
340	1834256	145	1344.8224858417
340	1847481	146	1329.3446774721
340	1860290	147	1314.5341562997
340	1873005	148	1299.9266488541
340	1885809	149	1284.9646760798
340	1898568	150	1269.6177833863
340	1910969	151	1254.3693690725
340	1923416	152	1240.0859460633
340	1935353	153	1231.9504532214
340	1947244	154	1229.8494120934
340	1959086	155	1228.5285185807
340	1970834	156	1227.6385259423
340	1982798	157	1227.1794341782
340	1994508	158	1227.1279486348
340	2006247	159	1226.9306895193
341	718153	90	1098.1171513867
341	739983	91	1098.1171513867
341	763741	92	1098.1788980458
341	785982	93	1098.3031196674
341	808332	94	1098.4783670026
341	831257	95	1098.7154748793
341	853761	96	1098.9988565675
341	876504	97	1099.3319520448
341	899281	98	1098.8214369605
341	921831	99	1098.3062413856
341	944749	100	1098.4708741565
341	967452	101	1098.8457121826
341	990228	102	1099.8705192392
341	1013595	103	1101.0039581468
341	1036534	104	1105.4159202767
341	1059491	105	1106.5836630865
341	1082566	106	1107.2454835994
341	1105643	107	1107.50657692
341	1128650	108	1107.9106014817
341	1151632	109	1108.1810306063
341	1174669	110	1107.3897670842
341	1197710	111	1107.552154276
341	1220912	112	1107.7894622091
341	1244025	113	1107.8221961424
341	1266807	114	1106.8405114862
341	1289300	115	1106.1280336831
341	1311922	116	1106.7817641742
341	1334430	117	1108.5689582954
341	1356533	118	1111.7564085589
341	1378366	119	1114.9580153638
341	1400236	120	1119.2045221557
341	1422004	121	1124.6011102558
341	1443455	122	1130.2497561382
341	1464248	123	1136.1171659408
341	1484311	124	1142.4545641471
341	1504459	125	1149.1295014207
341	1524513	126	1155.6465078447
341	1544212	127	1162.1861180874
341	1563475	128	1168.6779572143
341	1582451	129	1175.284429704
341	1601146	130	1181.6431435908
341	1619871	131	1188.0433618887
341	1637837	132	1194.3322104803
341	1655456	133	1199.7890277648
341	1672378	134	1205.1210396378
341	1688944	135	1210.3998400163
341	1704875	136	1215.0287694849
341	1720711	137	1216.1060055884
341	1735832	138	1216.9386462867
341	1750885	139	1220.8966550952
341	1765284	140	1224.5384707643
341	1779549	141	1228.4691809505
341	1793765	142	1232.8318307835
341	1807647	143	1237.235118597
341	1821016	144	1241.5309680392
341	1834256	145	1244.1576758108
341	1847481	146	1246.1643316147
341	1860290	147	1247.9957069397
341	1873005	148	1249.9074608639
341	1885809	149	1252.5690804579
341	1898568	150	1256.2818289651
341	1910969	151	1256.9870275757
341	1923416	152	1250.8947046743
341	1935353	153	1239.6291476071
341	1947244	154	1228.4383796053
341	1959086	155	1214.7074147069
341	1970834	156	1205.4557547055
341	1982798	157	1200.6833996013
341	1994508	158	1200.1481965869
341	2006247	159	1198.0976467399
342	739983	91	2.3907371335663
342	763741	92	4.8096730693942
342	785982	93	6.7853114314843
342	808332	94	9.1804579147138
342	831257	95	10.972109818831
342	853761	96	12.896952452534
342	876504	97	15.495635188674
342	899281	98	15.085427914886
342	921831	99	15.662392089632
342	944749	100	15.420009901025
342	967452	101	14.828299033269
342	990228	102	14.709325462254
342	1013595	103	15.965915862238
342	1036534	104	15.189599868911
342	1059491	105	15.315370048163
342	1082566	106	15.432329148659
342	1105643	107	15.116752163414
342	1128650	108	15.570146025065
342	1151632	109	15.626074163476
342	1174669	110	15.508596865716
342	1197710	111	15.30566779552
342	1220912	112	15.27608177918
342	1244025	113	15.525154155912
342	1266807	114	15.670779112726
342	1289300	115	15.909441224788
342	1311922	116	14.802642621472
342	1334430	117	15.724923146609
342	1356533	118	14.950870522577
342	1378366	119	15.700240531215
342	1400236	120	15.154380079731
342	1422004	121	14.811914564786
342	1443455	122	15.385558684659
342	1464248	123	15.508120961604
342	1484311	124	15.519392826525
342	1504459	125	15.152199728554
342	1524513	126	15.304857610888
342	1544212	127	15.094961620262
342	1563475	128	15.993442397146
342	1582451	129	15.566509425803
342	1601146	130	15.668114690227
342	1619871	131	15.619778286363
342	1637837	132	15.258462175378
342	1655456	133	14.760817878507
342	1672378	134	15.217948715622
342	1688944	135	15.945578766475
342	1704875	136	15.30048743193
342	1720711	137	14.599889427409
342	1735832	138	15.848014120176
342	1750885	139	15.55944304599
342	1765284	140	15.780382833793
342	1779549	141	15.171703063953
342	1793765	142	15.203078051307
342	1807647	143	15.023272266262
342	1821016	144	15.161345301825
342	1834256	145	15.606491443329
342	1847481	146	14.922584441071
342	1860290	147	14.732439711504
342	1873005	148	15.107800553739
342	1885809	149	15.655070205964
342	1898568	150	15.489379768888
342	1910969	151	15.763914265414
342	1923416	152	14.051851054761
342	1935353	153	11.429903193317
342	1947244	154	13.794404145837
342	1959086	155	9.2944041458373
342	1970834	156	4.7944041458373
342	1982798	157	0.53767573764371
342	1994508	158	2.0600237142998
342	2006247	159	3.8204514936405
343	763741	92	2103.2782741811
343	785982	93	2103.2782741811
343	808332	94	2101.3946906023
343	831257	95	2097.7116039375
343	853761	96	2092.3119506989
343	876504	97	2085.4801306519
343	899281	98	2077.173923343
343	921831	99	2067.253672982
343	944749	100	2055.140039081
343	967452	101	2041.2283348494
343	990228	102	2025.9422467855
343	1013595	103	2010.6425639951
343	1036534	104	1995.3259365516
343	1059491	105	1980.2914830488
343	1082566	106	1964.5677985115
343	1105643	107	1950.2757443111
343	1128650	108	1934.4634270975
343	1151632	109	1918.6649099128
343	1174669	110	1903.7876301182
343	1197710	111	1888.416793498
343	1220912	112	1873.3591659809
343	1244025	113	1857.8198147953
343	1266807	114	1842.169823931
343	1289300	115	1826.2695716461
343	1311922	116	1810.5244813232
343	1334430	117	1795.1097779996
343	1356533	118	1780.3076283401
343	1378366	119	1765.191556735
343	1400236	120	1750.4542483447
343	1422004	121	1735.5147064187
343	1443455	122	1720.5951713891
343	1464248	123	1705.5225278304
343	1484311	124	1690.9349959891
343	1504459	125	1677.0057947361
343	1524513	126	1663.0300601596
343	1544212	127	1649.4978601325
343	1563475	128	1635.5546333349
343	1582451	129	1621.9978754583
343	1601146	130	1607.9586518808
343	1619871	131	1593.8383687877
343	1637837	132	1579.6964118696
343	1655456	133	1565.3158416774
343	1672378	134	1551.0241186677
343	1688944	135	1537.2356890864
343	1704875	136	1522.9358166005
343	1720711	137	1508.9038381886
343	1735832	138	1494.8921957335
343	1750885	139	1479.5028564466
343	1765284	140	1464.0062419985
343	1779549	141	1448.9777571612
343	1793765	142	1434.4521011378
343	1807647	143	1419.0327617959
343	1821016	144	1404.353785803
343	1834256	145	1389.9565924682
343	1847481	146	1374.9106244393
343	1860290	147	1360.1966697628
343	1873005	148	1344.7535515265
343	1885809	149	1329.7928502544
343	1898568	150	1314.7181216784
343	1910969	151	1299.5452454485
343	1923416	152	1283.8878826721
343	1935353	153	1268.3364255659
343	1947244	154	1253.7093439182
343	1959086	155	1239.9942059402
343	1970834	156	1231.4066085827
343	1982798	157	1229.3344774465
343	1994508	158	1228.3492860484
343	2006247	159	1227.7949955246
344	763741	92	1098.1171513867
344	785982	93	1098.1171513867
344	808332	94	1098.1657672894
344	831257	95	1098.26082895
344	853761	96	1098.4001957503
344	876504	97	1098.5765272401
344	899281	98	1098.790913143
344	921831	99	1099.0469580203
344	944749	100	1099.3140566608
344	967452	101	1098.8391426847
344	990228	102	1098.317310367
344	1013595	103	1098.4539458139
344	1036534	104	1098.8260096384
344	1059491	105	1099.8256112532
344	1082566	106	1101.0396078975
344	1105643	107	1105.3551910844
344	1128650	108	1106.5756539752
344	1151632	109	1107.2525292132
344	1174669	110	1107.504522226
344	1197710	111	1107.9159302586
344	1220912	112	1108.1978471176
344	1244025	113	1107.4091664796
344	1266807	114	1107.548709224
344	1289300	115	1107.7955146452
344	1311922	116	1107.7587786186
344	1334430	117	1106.7961945392
344	1356533	118	1106.1281498347
344	1378366	119	1106.7328187486
344	1400236	120	1108.4435561453
344	1422004	121	1111.5310190782
344	1443455	122	1114.7860017424
344	1464248	123	1118.9862625297
344	1484311	124	1124.5182952687
344	1504459	125	1130.2646547861
344	1524513	126	1136.0302111836
344	1544212	127	1142.0607785786
344	1563475	128	1148.7037198608
344	1582451	129	1155.1625365937
344	1601146	130	1161.8512040478
344	1619871	131	1168.5781703753
344	1637837	132	1175.0020829876
344	1655456	133	1181.4382185299
344	1672378	134	1187.8345898276
344	1688944	135	1193.9925679107
344	1704875	136	1199.6894630203
344	1720711	137	1205.0795805302
344	1735832	138	1210.2166614973
344	1750885	139	1214.8892953447
344	1765284	140	1215.9384510196
344	1779549	141	1216.8131099529
344	1793765	142	1220.6019011328
344	1807647	143	1224.3253074425
344	1821016	144	1228.0455179857
344	1834256	145	1232.3567631397
344	1847481	146	1236.9572938652
344	1860290	147	1241.4497613381
344	1873005	148	1244.1666129575
344	1885809	149	1246.1062272311
344	1898568	150	1247.973302022
344	1910969	151	1249.9642775954
344	1923416	152	1252.803629517
344	1935353	153	1256.7210365199
344	1947244	154	1256.9146377201
344	1959086	155	1250.8274997004
344	1970834	156	1237.686798001
344	1982798	157	1223.0855260309
344	1994508	158	1212.8442549705
344	2006247	159	1207.0822888071
345	763741	92	2.4189359358279
345	785982	93	1.9756383620901
345	808332	94	2.3951464832295
345	831257	95	1.7916519041173
345	853761	96	1.9248426337028
345	876504	97	2.5986827361397
345	899281	98	-0.41020727378782
345	921831	99	0.57696417474654
345	944749	100	-0.24238218860701
345	967452	101	-0.59171086775605
345	990228	102	-0.11897357101552
345	1013595	103	1.2565903999843
345	1036534	104	-0.77631599332672
345	1059491	105	0.12577017925214
345	1082566	106	0.11695910049602
345	1105643	107	-0.31557698524557
345	1128650	108	0.45339386165142
345	1151632	109	0.055928138410673
345	1174669	110	-0.11747729775962
345	1197710	111	-0.20292907019611
345	1220912	112	-0.029586016340181
345	1244025	113	0.24907237673178
345	1266807	114	0.14562495681457
345	1289300	115	0.23866211206187
345	1311922	116	-1.1067986033158
345	1334430	117	0.92228052513674
345	1356533	118	-0.7740526240319
345	1378366	119	0.7493700086372
345	1400236	120	-0.54586045148317
345	1422004	121	-0.3424655149458
345	1443455	122	0.57364411987364
345	1464248	123	0.12256227694452
345	1484311	124	0.011271864920854
345	1504459	125	-0.36719309797045
345	1524513	126	0.15265788233373
345	1544212	127	-0.20989599062595
345	1563475	128	0.89848077688366
345	1582451	129	-0.42693297134247
345	1601146	130	0.10160526442342
345	1619871	131	-0.048336403863505
345	1637837	132	-0.36131611098535
345	1655456	133	-0.49764429687057
345	1672378	134	0.45713083711453
345	1688944	135	0.72763005085289
345	1704875	136	-0.64509133454412
345	1720711	137	-0.70059800452182
345	1735832	138	1.2481246927669
345	1750885	139	-0.28857107418589
345	1765284	140	0.22093978780322
345	1779549	141	-0.60867976984009
345	1793765	142	0.031374987354502
345	1807647	143	-0.17980578504503
345	1821016	144	0.13807303556241
345	1834256	145	0.44514614150394
345	1847481	146	-0.68390700225718
345	1860290	147	-0.19014472956769
345	1873005	148	0.37536084223539
345	1885809	149	0.54726965222508
345	1898568	150	-0.16569043707568
345	1910969	151	0.2745344965253
345	1923416	152	-1.7120632106525
345	1935353	153	-2.621947861444
345	1947244	154	2.36450095252
345	1959086	155	-4.5
345	1970834	156	-4.5
345	1982798	157	-4.2567284081936
345	1994508	158	1.5223479766561
345	2006247	159	1.7604277793407
346	763741	92	4.1561610208143
346	785982	93	4.6968649713384
346	808332	94	6.9235806912686
346	831257	95	6.4989445291601
346	853761	96	7.9130467433455
346	876504	97	11.905872062614
346	899281	98	0.973
346	921831	99	4.398317304572
346	944749	100	1.2918240949605
346	967452	101	0.973
346	990228	102	1.6918252650114
346	1013595	103	7.0912572551683
346	1036534	104	0.973
346	1059491	105	2.6448919131739
346	1082566	106	2.6289702084152
346	1105643	107	1.008657547479
346	1128650	108	3.9111203629264
346	1151632	109	2.4268908363264
346	1174669	110	1.7636349887844
346	1197710	111	1.431037771128
346	1220912	112	2.0673090131861
346	1244025	113	3.1365381514318
346	1266807	114	2.7714379824163
346	1289300	115	3.1645391447477
346	1311922	116	0.973
346	1334430	117	5.722944394039
346	1356533	118	0.973
346	1378366	119	5.0603271567421
346	1400236	120	0.973
346	1422004	121	0.973
346	1443455	122	4.3156694327763
346	1464248	123	2.6607314092909
346	1484311	124	2.2461144749745
346	1504459	125	0.973
346	1524513	126	2.742557763909
346	1544212	127	1.3923410038349
346	1563475	128	5.7225644348119
346	1582451	129	0.973
346	1601146	130	2.6048155914346
346	1619871	131	2.0335864380787
346	1637837	132	0.973
346	1655456	133	0.973
346	1672378	134	3.8462204095986
346	1688944	135	5.0499489393104
346	1704875	136	0.973
346	1720711	137	0.973
346	1735832	138	7.0092630174499
346	1750885	139	1.1264767220366
346	1765284	140	3.0745112543089
346	1779549	141	0.973
346	1793765	142	2.2829666294371
346	1807647	143	1.4969484116464
346	1821016	144	2.667834314831
346	1834256	145	3.8882716333197
346	1847481	146	0.973
346	1860290	147	1.4409712390392
346	1873005	148	3.5240307214586
346	1885809	149	4.2844148285631
346	1898568	150	1.5819959020975
346	1910969	151	3.275316399258
346	1923416	152	0.973
346	1935353	153	0.973
346	1947244	154	9.8785936861048
346	1959086	155	0.973
346	1970834	156	0.973
346	1982798	157	0.973
346	1994508	158	1.9659767079708
346	2006247	159	2.9203264534069
347	785982	93	1.8823341296572
347	808332	94	3.6806435400439
347	831257	95	5.3960714531415
347	853761	96	6.8272882534475
347	876504	97	8.3006975009623
347	899281	98	9.9136698998795
347	921831	99	12.105787904077
347	944749	100	13.905943491059
347	967452	101	15.279758200515
347	990228	102	15.290107952524
347	1013595	103	15.30588536663
347	1036534	104	15.056020031986
347	1059491	105	15.754772164789
347	1082566	106	14.713322779001
347	1105643	107	15.875364687317
347	1128650	108	15.835991859878
347	1151632	109	14.894441219908
347	1174669	110	15.39246231867
347	1197710	111	15.083785011712
347	1220912	112	15.575066709029
347	1244025	113	15.669505302794
347	1266807	114	15.918228003499
347	1289300	115	15.770813886495
347	1311922	116	15.460931263631
347	1334430	117	14.834673800552
347	1356533	118	15.151902796305
347	1378366	119	14.855611362564
347	1400236	120	15.319879873609
347	1422004	121	15.342753724847
347	1443455	122	15.730944023654
347	1464248	123	15.639480036264
347	1484311	124	15.068139869603
347	1504459	125	15.118478048686
347	1524513	126	14.820573167969
347	1544212	127	15.445001361845
347	1563475	128	15.01690727009
347	1582451	129	15.651353428629
347	1601146	130	15.641684359382
347	1619871	131	15.534267326701
347	1637837	132	15.756042238744
347	1655456	133	15.658697005361
347	1672378	134	15.161439548759
347	1688944	135	15.952613375499
347	1704875	136	14.916571759991
347	1720711	137	14.809394009947
347	1735832	138	15.967881731456
347	1750885	139	15.181790930103
347	1765284	140	14.756006504698
347	1779549	141	15.057046400546
347	1793765	142	15.908034254191
347	1807647	143	15.113201401732
347	1821016	144	15.109362776997
347	1834256	145	15.884091764851
347	1847481	146	15.531496165064
347	1860290	147	15.681864589523
347	1873005	148	15.085085098189
347	1885809	149	15.189168793801
347	1898568	150	15.303345285309
347	1910969	151	15.807665265584
347	1923416	152	15.92625541389
347	1935353	153	14.796724376804
347	1947244	154	15.213651433168
347	1959086	155	15.957028779062
347	1970834	156	14.788587365878
347	1982798	157	10.288587365878
347	1994508	158	5.7885873658781
347	2006247	159	3.2860790603658
348	808332	94	1.7983094103867
348	831257	95	1.7154279130977
348	853761	96	1.431216800306
348	876504	97	1.4734092475148
348	899281	98	1.6129723989172
348	921831	99	2.1921180041973
348	944749	100	1.8001555869821
348	967452	101	1.3738147094561
348	990228	102	0.010349752008915
348	1013595	103	0.015777414105832
348	1036534	104	-0.24986533464398
348	1059491	105	0.6987521328032
348	1082566	106	-1.0414493857883
348	1105643	107	1.1620419083163
348	1128650	108	-0.039372827438637
348	1151632	109	-0.94155063997023
348	1174669	110	0.49802109876182
348	1197710	111	-0.30867730695754
348	1220912	112	0.49128169731703
348	1244025	113	0.094438593764789
348	1266807	114	0.24872270070482
348	1289300	115	-0.14741411700379
348	1311922	116	-0.3098826228641
348	1334430	117	-0.62625746307895
348	1356533	118	0.31722899575252
348	1378366	119	-0.29629143374041
348	1400236	120	0.46426851104479
348	1422004	121	0.022873851237819
348	1443455	122	0.38819029880688
348	1464248	123	-0.091463987389581
348	1484311	124	-0.57134016666096
348	1504459	125	0.05033817908261
348	1524513	126	-0.2979048807174
348	1544212	127	0.62442819387652
348	1563475	128	-0.42809409175534
348	1582451	129	0.6344461585395
348	1601146	130	-0.0096690692473196
348	1619871	131	-0.10741703268141
348	1637837	132	0.22177491204348
348	1655456	133	-0.097345233382658
348	1672378	134	-0.49725745660253
348	1688944	135	0.79117382674012
348	1704875	136	-1.0360416155076
348	1720711	137	-0.1071777500445
348	1735832	138	1.1584877215093
348	1750885	139	-0.78609080135357
348	1765284	140	-0.42578442540444
348	1779549	141	0.30103989584796
348	1793765	142	0.85098785364535
348	1807647	143	-0.79483285245951
348	1821016	144	-0.0038386247353639
348	1834256	145	0.77472898785491
348	1847481	146	-0.35259559978731
348	1860290	147	0.15036842445843
348	1873005	148	-0.59677949133329
348	1885809	149	0.10408369561192
348	1898568	150	0.11417649150826
348	1910969	151	0.50431998027489
348	1923416	152	0.11859014830552
348	1935353	153	-1.1295310370857
348	1947244	154	0.41692705636378
348	1959086	155	0.74337734589353
348	1970834	156	-1.1684414131834
348	1982798	157	-4.5
348	1994508	158	-4.5
348	2006247	159	-2.5025083055122
349	808332	94	2.8873240122369
349	831257	95	3.615654863789
349	853761	96	3.8236368053707
349	876504	97	4.5107682024293
349	899281	98	5.5319470846595
349	921831	99	8.253366053722
349	944749	100	8.0621552831646
349	967452	101	7.2356112930582
349	990228	102	2.2159535155432
349	1013595	103	2.2377983788309
349	1036534	104	1.2449507856215
349	1059491	105	4.884353259514
349	1082566	106	0.973
349	1105643	107	6.6913669050325
349	1128650	108	2.0905297500322
349	1151632	109	0.973
349	1174669	110	4.0368800730902
349	1197710	111	1.0325728874198
349	1220912	112	4.0544415574729
349	1244025	113	2.5779474816582
349	1266807	114	3.2046804774948
349	1289300	115	1.6728531055447
349	1311922	116	1.0425991818648
349	1334430	117	0.973
349	1356533	118	3.3206708890232
349	1378366	119	1.0687130557145
349	1400236	120	3.8953060728288
349	1422004	121	2.2683563494477
349	1443455	122	3.7001656861794
349	1464248	123	1.8730883515171
349	1484311	124	0.973
349	1504459	125	2.3419502282492
349	1524513	126	1.0616239936938
349	1544212	127	4.5197002495416
349	1563475	128	0.973
349	1582451	129	4.6123206357771
349	1601146	130	2.181633421697
349	1619871	131	1.8035236740877
349	1637837	132	3.0735349312342
349	1655456	133	1.8527016918991
349	1672378	134	0.973
349	1688944	135	5.2963169020843
349	1704875	136	0.973
349	1720711	137	1.7419246526856
349	1735832	138	6.7145617610072
349	1750885	139	0.973
349	1765284	140	0.973
349	1779549	141	3.2440993294409
349	1793765	142	5.5118482902358
349	1807647	143	0.973
349	1821016	144	2.1435458168753
349	1834256	145	5.2121823551588
349	1847481	146	0.973
349	1860290	147	2.7910439061546
349	1873005	148	0.973
349	1885809	149	2.547457070104
349	1898568	150	2.6004075488128
349	1910969	151	4.158744737212
349	1923416	152	2.7066345501573
349	1935353	153	0.973
349	1947244	154	3.6978571976751
349	1959086	155	5.1138750451579
349	1970834	156	0.973
349	1982798	157	0.973
349	1994508	158	0.973
349	2006247	159	0.973

